
OS:Version,
  {5ec5fd9c-b047-4bfc-aabc-936fc47a2f0a}, !- Handle
  1.3.1;                                  !- Version Identifier

OS:Construction,
  {09c5ab82-2315-4875-88e0-3f352761c4b6}, !- Handle
  CSRimJoist,                             !- Name
  ,                                       !- Surface Rendering Name
  {96cfcd4c-1006-4f92-b85b-c90068a22b13}, !- Layer 1
  {53d81383-ce9e-4808-80d1-26dbf7ae62db}, !- Layer 2
  {07a0f7ee-7c2b-4dcb-8b57-f110adace517}; !- Layer 3

OS:Material,
  {96cfcd4c-1006-4f92-b85b-c90068a22b13}, !- Handle
  Exterior_Finish_Vinyl_Light,            !- Name
  Rough,                                  !- Roughness
  0.009525,                               !- Thickness {m}
  0.089435,                               !- Conductivity {W/m-K}
  177.822,                                !- Density {kg/m3}
  1046.75,                                !- Specific Heat {J/kg-K}
  0.9,                                    !- Thermal Absorptance
  0.3,                                    !- Solar Absorptance
  0.3;                                    !- Visible Absorptance

OS:Material,
  {53d81383-ce9e-4808-80d1-26dbf7ae62db}, !- Handle
  Plywood_3_2in,                          !- Name
  Rough,                                  !- Roughness
  0.0381,                                 !- Thickness {m}
  0.1154577,                              !- Conductivity {W/m-K}
  512.64,                                 !- Density {kg/m3}
  1214.23;                                !- Specific Heat {J/kg-K}

OS:Material,
  {07a0f7ee-7c2b-4dcb-8b57-f110adace517}, !- Handle
  CSJoistandCavity,                       !- Name
  Rough,                                  !- Roughness
  0.23495,                                !- Thickness {m}
  0.182840791592406,                      !- Conductivity {W/m-K}
  108.738954,                             !- Density {kg/m3}
  1149.39401785582;                       !- Specific Heat {J/kg-K}

