
OS:Version,
  {3855f3db-3b93-4e5b-9d30-6705cbc31453}, !- Handle
  1.3.1;                                  !- Version Identifier

OS:Construction,
  {c1feb428-c171-4573-a72c-7c0ac81e8251}, !- Handle
  Double-Pane Low-Gain Low-E Insulated Frame Argon Fill, !- Name
  ,                                       !- Surface Rendering Name
  {5448d23c-ae56-42d7-9dac-b69c84478aa7}; !- Layer 1

OS:WindowMaterial:SimpleGlazingSystem,
  {5448d23c-ae56-42d7-9dac-b69c84478aa7}, !- Handle
  Double-Pane Glass,                      !- Name
  1.47543771781523,                       !- U-Factor {W/m2-K}
  0.310843648087106;                      !- Solar Heat Gain Coefficient

OS:StandardsInformation:Construction,
  {5929cd16-af94-4264-986d-148e4425b7d6}, !- Handle
  {c1feb428-c171-4573-a72c-7c0ac81e8251}, !- Construction Name
  ExteriorWindow;                         !- Intended Surface Type

OS:ComponentData,
  {b3e6eab6-b529-472b-8833-2cef211e4d31}, !- Handle
  Component Data 1,                       !- Name
  {015c199d-16d1-461c-b511-44e34bcd9f9e}, !- UUID
  {79b47f08-a074-43be-831c-e1c9b17aa634}, !- Version UUID
  1406055301,                             !- Creation Timestamp
  1406055301,                             !- Version Timestamp
  {c1feb428-c171-4573-a72c-7c0ac81e8251}, !- Name of Object 1
  {5448d23c-ae56-42d7-9dac-b69c84478aa7}, !- Name of Object 2
  {5929cd16-af94-4264-986d-148e4425b7d6}; !- Name of Object 3

