
OS:Version,
  {cb6cde39-fae9-48f4-8761-3a0e7341e504}, !- Handle
  1.3.1;                                  !- Version Identifier

OS:Construction,
  {923ffbc0-0db9-48cc-bfdd-101f5c0c70d1}, !- Handle
  CSRimJoist,                             !- Name
  ,                                       !- Surface Rendering Name
  {81522653-4acc-4560-8f10-9ef5626d9e9d}, !- Layer 1
  {cfa1de6c-ec2d-44e1-a3e8-f9ca10bb3287}, !- Layer 2
  {8559641f-0ef8-47a0-bf09-df7187c5a8ff}; !- Layer 3

OS:Material,
  {81522653-4acc-4560-8f10-9ef5626d9e9d}, !- Handle
  Exterior_Finish_Vinyl_Light,            !- Name
  Rough,                                  !- Roughness
  0.009525,                               !- Thickness {m}
  0.089435,                               !- Conductivity {W/m-K}
  177.822,                                !- Density {kg/m3}
  1046.75,                                !- Specific Heat {J/kg-K}
  0.9,                                    !- Thermal Absorptance
  0.3,                                    !- Solar Absorptance
  0.3;                                    !- Visible Absorptance

OS:Material,
  {cfa1de6c-ec2d-44e1-a3e8-f9ca10bb3287}, !- Handle
  Plywood_3_2in,                          !- Name
  Rough,                                  !- Roughness
  0.0381,                                 !- Thickness {m}
  0.1154577,                              !- Conductivity {W/m-K}
  512.64,                                 !- Density {kg/m3}
  1214.23;                                !- Specific Heat {J/kg-K}

OS:Material,
  {8559641f-0ef8-47a0-bf09-df7187c5a8ff}, !- Handle
  CSJoistandCavity,                       !- Name
  Rough,                                  !- Roughness
  0.23495,                                !- Thickness {m}
  0.0474587126559203,                     !- Conductivity {W/m-K}
  108.738954,                             !- Density {kg/m3}
  1149.39401785582;                       !- Specific Heat {J/kg-K}

