
OS:Version,
  {3b98142f-d7ef-4d35-a0a2-39d79160322d}, !- Handle
  1.3.1;                                  !- Version Identifier

OS:Construction,
  {49597753-ede5-4ddb-a6ea-8147bd22e59e}, !- Handle
  ExtInsFinWall,                          !- Name
  ,                                       !- Surface Rendering Name
  {f4f803f9-7856-45e6-8d86-f28e6f007071}, !- Layer 1
  {c05d804c-97f4-41d7-a15b-69acd234cc24}, !- Layer 2
  {21ecca51-5932-4946-a5ce-cd524ca2a0b4}, !- Layer 3
  {1d0217ba-7129-4977-aa8a-29aa4d79545d}; !- Layer 4

OS:Material,
  {f4f803f9-7856-45e6-8d86-f28e6f007071}, !- Handle
  Exterior_Finish_Vinyl_Light,            !- Name
  Rough,                                  !- Roughness
  0.009525,                               !- Thickness {m}
  0.089435,                               !- Conductivity {W/m-K}
  177.822,                                !- Density {kg/m3}
  1046.75,                                !- Specific Heat {J/kg-K}
  0.9,                                    !- Thermal Absorptance
  0.3,                                    !- Solar Absorptance
  0.3;                                    !- Visible Absorptance

OS:Material,
  {1d0217ba-7129-4977-aa8a-29aa4d79545d}, !- Handle
  GypsumBoard_1_2in,                      !- Name
  Rough,                                  !- Roughness
  0.0127,                                 !- Thickness {m}
  0.1602906,                              !- Conductivity {W/m-K}
  801,                                    !- Density {kg/m3}
  837.4;                                  !- Specific Heat {J/kg-K}

OS:Material,
  {c05d804c-97f4-41d7-a15b-69acd234cc24}, !- Handle
  CMU,                                    !- Name
  Rough,                                  !- Roughness
  0.2032,                                 !- Thickness {m}
  0.293124478705938,                      !- Conductivity {W/m-K}
  705.07224,                              !- Density {kg/m3}
  858.222742888303;                       !- Specific Heat {J/kg-K}

OS:Material,
  {21ecca51-5932-4946-a5ce-cd524ca2a0b4}, !- Handle
  Furring,                                !- Name
  Rough,                                  !- Roughness
  0.1397,                                 !- Thickness {m}
  0.0519641842131579,                     !- Conductivity {W/m-K}
  110.3341455,                            !- Density {kg/m3}
  1154.52431712832;                       !- Specific Heat {J/kg-K}

