
OS:Version,
  {61736da1-c3ab-463f-afa8-3e9a8f761b05}, !- Handle
  1.3.1;                                  !- Version Identifier

OS:Construction,
  {6a77fb7b-3edb-4482-a922-2b0d1eaca87c}, !- Handle
  CSRimJoist,                             !- Name
  ,                                       !- Surface Rendering Name
  {2f79875c-0d10-4ddf-8ee4-f7146f41d8dc}, !- Layer 1
  {0dd93f7c-6048-4e2c-8008-870a437046c9}, !- Layer 2
  {7d8f3d22-2cb4-4e18-b69b-64c460b90db7}; !- Layer 3

OS:Material,
  {2f79875c-0d10-4ddf-8ee4-f7146f41d8dc}, !- Handle
  Exterior_Finish_Vinyl_Light,            !- Name
  Rough,                                  !- Roughness
  0.009525,                               !- Thickness {m}
  0.089435,                               !- Conductivity {W/m-K}
  177.822,                                !- Density {kg/m3}
  1046.75,                                !- Specific Heat {J/kg-K}
  0.9,                                    !- Thermal Absorptance
  0.3,                                    !- Solar Absorptance
  0.3;                                    !- Visible Absorptance

OS:Material,
  {0dd93f7c-6048-4e2c-8008-870a437046c9}, !- Handle
  Plywood_3_2in,                          !- Name
  Rough,                                  !- Roughness
  0.0381,                                 !- Thickness {m}
  0.1154577,                              !- Conductivity {W/m-K}
  512.64,                                 !- Density {kg/m3}
  1214.23;                                !- Specific Heat {J/kg-K}

OS:Material,
  {7d8f3d22-2cb4-4e18-b69b-64c460b90db7}, !- Handle
  CSJoistandCavity,                       !- Name
  Rough,                                  !- Roughness
  0.23495,                                !- Thickness {m}
  0.110682016358495,                      !- Conductivity {W/m-K}
  108.738954,                             !- Density {kg/m3}
  1149.39401785582;                       !- Specific Heat {J/kg-K}

