
OS:Version,
  {8418b4b9-4bb7-45f0-84ae-06454687a0d7}, !- Handle
  1.3.1;                                  !- Version Identifier

OS:Construction,
  {93d88e67-9ea5-4d93-8241-f3c8bfe83e25}, !- Handle
  ExtInsFinWall,                          !- Name
  ,                                       !- Surface Rendering Name
  {b3f6ec33-59da-4019-875e-c76ce3a450f0}, !- Layer 1
  {d9de6509-baa6-41c9-817e-4c97224ccaad}, !- Layer 2
  {f4a63c20-6d79-48ac-a24a-f2ce193ee5eb}, !- Layer 3
  {496b15e8-62e7-4be5-84f9-6d303630a8d3}; !- Layer 4

OS:Material,
  {b3f6ec33-59da-4019-875e-c76ce3a450f0}, !- Handle
  Exterior_Finish_Vinyl_Light,            !- Name
  Rough,                                  !- Roughness
  0.009525,                               !- Thickness {m}
  0.089435,                               !- Conductivity {W/m-K}
  177.822,                                !- Density {kg/m3}
  1046.75,                                !- Specific Heat {J/kg-K}
  0.9,                                    !- Thermal Absorptance
  0.3,                                    !- Solar Absorptance
  0.3;                                    !- Visible Absorptance

OS:Material,
  {d9de6509-baa6-41c9-817e-4c97224ccaad}, !- Handle
  Plywood_1_2in,                          !- Name
  Rough,                                  !- Roughness
  0.0127,                                 !- Thickness {m}
  0.1154577,                              !- Conductivity {W/m-K}
  512.64,                                 !- Density {kg/m3}
  1214.23;                                !- Specific Heat {J/kg-K}

OS:Material,
  {496b15e8-62e7-4be5-84f9-6d303630a8d3}, !- Handle
  GypsumBoard_1_2in,                      !- Name
  Rough,                                  !- Roughness
  0.0127,                                 !- Thickness {m}
  0.1602906,                              !- Conductivity {W/m-K}
  801,                                    !- Density {kg/m3}
  837.4;                                  !- Specific Heat {J/kg-K}

OS:Material,
  {f4a63c20-6d79-48ac-a24a-f2ce193ee5eb}, !- Handle
  StudandCavity,                          !- Name
  Rough,                                  !- Roughness
  0.1397,                                 !- Thickness {m}
  0.0429417962777464,                     !- Conductivity {W/m-K}
  147.699589804884,                       !- Density {kg/m3}
  1174.62950532575;                       !- Specific Heat {J/kg-K}

