
Version,
  8.9;                                    !- Version Identifier

Timestep,
  1;                                      !- Number of Timesteps per Hour

LifeCycleCost:Parameters,
  {fc620925-da34-4f5c-9671-3fdfc46f4948}, !- Name
  EndOfYear,                              !- Discounting Convention
  ConstantDollar,                         !- Inflation Approach
  0.03,                                   !- Real Discount Rate
  ,                                       !- Nominal Discount Rate
  ,                                       !- Inflation
  ,                                       !- Base Date Month
  2011,                                   !- Base Date Year
  ,                                       !- Service Date Month
  2011,                                   !- Service Date Year
  25,                                     !- Length of Study Period in Years
  ,                                       !- Tax rate
  None;                                   !- Depreciation Method

LifeCycleCost:UsePriceEscalation,
  U.S. Avg  Commercial-Electricity,       !- LCC Price Escalation Name
  Electricity,                            !- Resource
  2011,                                   !- Escalation Start Year
  January,                                !- Escalation Start Month
  0.9838,                                 !- Year Escalation 1
  0.9730,                                 !- Year Escalation 2
  0.9632,                                 !- Year Escalation 3
  0.9611,                                 !- Year Escalation 4
  0.9571,                                 !- Year Escalation 5
  0.9553,                                 !- Year Escalation 6
  0.9539,                                 !- Year Escalation 7
  0.9521,                                 !- Year Escalation 8
  0.9546,                                 !- Year Escalation 9
  0.9550,                                 !- Year Escalation 10
  0.9553,                                 !- Year Escalation 11
  0.9564,                                 !- Year Escalation 12
  0.9575,                                 !- Year Escalation 13
  0.9596,                                 !- Year Escalation 14
  0.9618,                                 !- Year Escalation 15
  0.9614,                                 !- Year Escalation 16
  0.9618,                                 !- Year Escalation 17
  0.9618,                                 !- Year Escalation 18
  0.9593,                                 !- Year Escalation 19
  0.9589,                                 !- Year Escalation 20
  0.9607,                                 !- Year Escalation 21
  0.9625,                                 !- Year Escalation 22
  0.9650,                                 !- Year Escalation 23
  0.9708,                                 !- Year Escalation 24
  0.9751,                                 !- Year Escalation 25
  0.9762,                                 !- Year Escalation 26
  0.9766,                                 !- Year Escalation 27
  0.9766,                                 !- Year Escalation 28
  0.9769,                                 !- Year Escalation 29
  0.9773;                                 !- Year Escalation 30

LifeCycleCost:UsePriceEscalation,
  U.S. Avg  Commercial-Distillate Oil,    !- LCC Price Escalation Name
  FuelOil#1,                              !- Resource
  2011,                                   !- Escalation Start Year
  January,                                !- Escalation Start Month
  0.9714,                                 !- Year Escalation 1
  0.9730,                                 !- Year Escalation 2
  0.9942,                                 !- Year Escalation 3
  1.0164,                                 !- Year Escalation 4
  1.0541,                                 !- Year Escalation 5
  1.0928,                                 !- Year Escalation 6
  1.1267,                                 !- Year Escalation 7
  1.1580,                                 !- Year Escalation 8
  1.1792,                                 !- Year Escalation 9
  1.1967,                                 !- Year Escalation 10
  1.2200,                                 !- Year Escalation 11
  1.2333,                                 !- Year Escalation 12
  1.2566,                                 !- Year Escalation 13
  1.2709,                                 !- Year Escalation 14
  1.2826,                                 !- Year Escalation 15
  1.2985,                                 !- Year Escalation 16
  1.3102,                                 !- Year Escalation 17
  1.3250,                                 !- Year Escalation 18
  1.3261,                                 !- Year Escalation 19
  1.3282,                                 !- Year Escalation 20
  1.3324,                                 !- Year Escalation 21
  1.3356,                                 !- Year Escalation 22
  1.3431,                                 !- Year Escalation 23
  1.3510,                                 !- Year Escalation 24
  1.3568,                                 !- Year Escalation 25
  1.3606,                                 !- Year Escalation 26
  1.3637,                                 !- Year Escalation 27
  1.3674,                                 !- Year Escalation 28
  1.3706,                                 !- Year Escalation 29
  1.3743;                                 !- Year Escalation 30

LifeCycleCost:UsePriceEscalation,
  U.S. Avg  Commercial-Residual Oil,      !- LCC Price Escalation Name
  FuelOil#2,                              !- Resource
  2011,                                   !- Escalation Start Year
  January,                                !- Escalation Start Month
  0.8469,                                 !- Year Escalation 1
  0.8257,                                 !- Year Escalation 2
  0.8681,                                 !- Year Escalation 3
  0.8988,                                 !- Year Escalation 4
  0.9289,                                 !- Year Escalation 5
  0.9604,                                 !- Year Escalation 6
  0.9897,                                 !- Year Escalation 7
  1.0075,                                 !- Year Escalation 8
  1.0314,                                 !- Year Escalation 9
  1.0554,                                 !- Year Escalation 10
  1.0861,                                 !- Year Escalation 11
  1.1278,                                 !- Year Escalation 12
  1.1497,                                 !- Year Escalation 13
  1.1620,                                 !- Year Escalation 14
  1.1743,                                 !- Year Escalation 15
  1.1852,                                 !- Year Escalation 16
  1.1948,                                 !- Year Escalation 17
  1.2037,                                 !- Year Escalation 18
  1.2071,                                 !- Year Escalation 19
  1.2119,                                 !- Year Escalation 20
  1.2139,                                 !- Year Escalation 21
  1.2194,                                 !- Year Escalation 22
  1.2276,                                 !- Year Escalation 23
  1.2365,                                 !- Year Escalation 24
  1.2420,                                 !- Year Escalation 25
  1.2461,                                 !- Year Escalation 26
  1.2509,                                 !- Year Escalation 27
  1.2550,                                 !- Year Escalation 28
  1.2591,                                 !- Year Escalation 29
  1.2638;                                 !- Year Escalation 30

LifeCycleCost:UsePriceEscalation,
  U.S. Avg  Commercial-Natural gas,       !- LCC Price Escalation Name
  NaturalGas,                             !- Resource
  2011,                                   !- Escalation Start Year
  January,                                !- Escalation Start Month
  0.9823,                                 !- Year Escalation 1
  0.9557,                                 !- Year Escalation 2
  0.9279,                                 !- Year Escalation 3
  0.9257,                                 !- Year Escalation 4
  0.9346,                                 !- Year Escalation 5
  0.9412,                                 !- Year Escalation 6
  0.9512,                                 !- Year Escalation 7
  0.9645,                                 !- Year Escalation 8
  0.9856,                                 !- Year Escalation 9
  1.0067,                                 !- Year Escalation 10
  1.0222,                                 !- Year Escalation 11
  1.0410,                                 !- Year Escalation 12
  1.0610,                                 !- Year Escalation 13
  1.0787,                                 !- Year Escalation 14
  1.0942,                                 !- Year Escalation 15
  1.1098,                                 !- Year Escalation 16
  1.1220,                                 !- Year Escalation 17
  1.1308,                                 !- Year Escalation 18
  1.1386,                                 !- Year Escalation 19
  1.1486,                                 !- Year Escalation 20
  1.1619,                                 !- Year Escalation 21
  1.1763,                                 !- Year Escalation 22
  1.1918,                                 !- Year Escalation 23
  1.2118,                                 !- Year Escalation 24
  1.2284,                                 !- Year Escalation 25
  1.2439,                                 !- Year Escalation 26
  1.2605,                                 !- Year Escalation 27
  1.2772,                                 !- Year Escalation 28
  1.2938,                                 !- Year Escalation 29
  1.3115;                                 !- Year Escalation 30

LifeCycleCost:UsePriceEscalation,
  U.S. Avg  Commercial-Coal,              !- LCC Price Escalation Name
  Coal,                                   !- Resource
  2011,                                   !- Escalation Start Year
  January,                                !- Escalation Start Month
  0.9970,                                 !- Year Escalation 1
  1.0089,                                 !- Year Escalation 2
  1.0089,                                 !- Year Escalation 3
  0.9941,                                 !- Year Escalation 4
  0.9941,                                 !- Year Escalation 5
  1.0000,                                 !- Year Escalation 6
  1.0030,                                 !- Year Escalation 7
  1.0059,                                 !- Year Escalation 8
  1.0089,                                 !- Year Escalation 9
  1.0119,                                 !- Year Escalation 10
  1.0148,                                 !- Year Escalation 11
  1.0178,                                 !- Year Escalation 12
  1.0208,                                 !- Year Escalation 13
  1.0267,                                 !- Year Escalation 14
  1.0297,                                 !- Year Escalation 15
  1.0356,                                 !- Year Escalation 16
  1.0415,                                 !- Year Escalation 17
  1.0534,                                 !- Year Escalation 18
  1.0564,                                 !- Year Escalation 19
  1.0593,                                 !- Year Escalation 20
  1.0653,                                 !- Year Escalation 21
  1.0712,                                 !- Year Escalation 22
  1.0742,                                 !- Year Escalation 23
  1.0801,                                 !- Year Escalation 24
  1.0831,                                 !- Year Escalation 25
  1.0831,                                 !- Year Escalation 26
  1.0861,                                 !- Year Escalation 27
  1.0890,                                 !- Year Escalation 28
  1.0920,                                 !- Year Escalation 29
  1.0950;                                 !- Year Escalation 30

Building,
  Building,                               !- Name
  ,                                       !- North Axis {deg}
  Suburbs,                                !- Terrain
  ,                                       !- Loads Convergence Tolerance Value
  ,                                       !- Temperature Convergence Tolerance Value {deltaC}
  ,                                       !- Solar Distribution
  ,                                       !- Maximum Number of Warmup Days
  ;                                       !- Minimum Number of Warmup Days

Zone,
  living,                                 !- Name
  ,                                       !- Direction of Relative North {deg}
  ,                                       !- X Origin {m}
  ,                                       !- Y Origin {m}
  ,                                       !- Z Origin {m}
  ,                                       !- Type
  ,                                       !- Multiplier
  ,                                       !- Ceiling Height {m}
  2.8316846592e-005,                      !- Volume {m3}
  ,                                       !- Floor Area {m2}
  ,                                       !- Zone Inside Convection Algorithm
  ;                                       !- Zone Outside Convection Algorithm

BuildingSurface:Detailed,
  agwall-1,                               !- Name
  Wall,                                   !- Surface Type
  ExtInsFinWall 3,                        !- Construction Name
  living,                                 !- Zone Name
  Outdoors,                               !- Outside Boundary Condition
  ,                                       !- Outside Boundary Condition Object
  SunExposed,                             !- Sun Exposure
  WindExposed,                            !- Wind Exposure
  ,                                       !- View Factor to Ground
  ,                                       !- Number of Vertices
  -59.5503, 10, 0,                        !- X,Y,Z Vertex 1 {m}
  -59.5503, 10, 2.4384,                   !- X,Y,Z Vertex 2 {m}
  59.5503, 10, 2.4384,                    !- X,Y,Z Vertex 3 {m}
  59.5503, 10, 0;                         !- X,Y,Z Vertex 4 {m}

BuildingSurface:Detailed,
  attic-floor-1 Reversed,                 !- Name
  Ceiling,                                !- Surface Type
  RevFinInsUnfinUAFloor 1,                !- Construction Name
  living,                                 !- Zone Name
  Surface,                                !- Outside Boundary Condition
  attic-floor-1,                          !- Outside Boundary Condition Object
  NoSun,                                  !- Sun Exposure
  NoWind,                                 !- Wind Exposure
  ,                                       !- View Factor to Ground
  ,                                       !- Number of Vertices
  9.87664882437358, -9.87664882437358, 0.5, !- X,Y,Z Vertex 1 {m}
  9.87664882437358, 9.87664882437358, 0.5, !- X,Y,Z Vertex 2 {m}
  -9.87664882437358, 9.87664882437358, 0.5, !- X,Y,Z Vertex 3 {m}
  -9.87664882437358, -9.87664882437358, 0.5; !- X,Y,Z Vertex 4 {m}

BuildingSurface:Detailed,
  Slab_ID1,                               !- Name
  Floor,                                  !- Surface Type
  Slab 1,                                 !- Construction Name
  living,                                 !- Zone Name
  Ground,                                 !- Outside Boundary Condition
  ,                                       !- Outside Boundary Condition Object
  NoSun,                                  !- Sun Exposure
  NoWind,                                 !- Wind Exposure
  ,                                       !- View Factor to Ground
  ,                                       !- Number of Vertices
  -9.01610558944381, -9.01610558944382, -0, !- X,Y,Z Vertex 1 {m}
  -9.01610558944381, 9.01610558944382, -0, !- X,Y,Z Vertex 2 {m}
  9.01610558944381, 9.01610558944382, -0, !- X,Y,Z Vertex 3 {m}
  9.01610558944381, -9.01610558944382, -0; !- X,Y,Z Vertex 4 {m}

BuildingSurface:Detailed,
  surface Door,                           !- Name
  Wall,                                   !- Surface Type
  Construction 1,                         !- Construction Name
  living,                                 !- Zone Name
  Adiabatic,                              !- Outside Boundary Condition
  ,                                       !- Outside Boundary Condition Object
  NoSun,                                  !- Sun Exposure
  NoWind,                                 !- Wind Exposure
  ,                                       !- View Factor to Ground
  ,                                       !- Number of Vertices
  -0.915491449144914, 12.5, 0,            !- X,Y,Z Vertex 1 {m}
  -0.915491449144914, 12.5, 2.0327968,    !- X,Y,Z Vertex 2 {m}
  0.915491449144914, 12.5, 2.0327968,     !- X,Y,Z Vertex 3 {m}
  0.915491449144914, 12.5, 0;             !- X,Y,Z Vertex 4 {m}

BuildingSurface:Detailed,
  surface Window_east,                    !- Name
  Wall,                                   !- Surface Type
  Construction 1,                         !- Construction Name
  living,                                 !- Zone Name
  Adiabatic,                              !- Outside Boundary Condition
  ,                                       !- Outside Boundary Condition Object
  NoSun,                                  !- Sun Exposure
  NoWind,                                 !- Wind Exposure
  ,                                       !- View Factor to Ground
  ,                                       !- Number of Vertices
  50, 4.8016, 0,                          !- X,Y,Z Vertex 1 {m}
  50, 4.8016, 1.526,                      !- X,Y,Z Vertex 2 {m}
  50, -4.8016, 1.526,                     !- X,Y,Z Vertex 3 {m}
  50, -4.8016, 0;                         !- X,Y,Z Vertex 4 {m}

BuildingSurface:Detailed,
  surface Window_north,                   !- Name
  Wall,                                   !- Surface Type
  Construction 1,                         !- Construction Name
  living,                                 !- Zone Name
  Adiabatic,                              !- Outside Boundary Condition
  ,                                       !- Outside Boundary Condition Object
  NoSun,                                  !- Sun Exposure
  NoWind,                                 !- Wind Exposure
  ,                                       !- View Factor to Ground
  ,                                       !- Number of Vertices
  -4.8016, 52.5, 0,                       !- X,Y,Z Vertex 1 {m}
  -4.8016, 52.5, 1.526,                   !- X,Y,Z Vertex 2 {m}
  4.8016, 52.5, 1.526,                    !- X,Y,Z Vertex 3 {m}
  4.8016, 52.5, 0;                        !- X,Y,Z Vertex 4 {m}

BuildingSurface:Detailed,
  surface Window_south,                   !- Name
  Wall,                                   !- Surface Type
  Construction 1,                         !- Construction Name
  living,                                 !- Zone Name
  Adiabatic,                              !- Outside Boundary Condition
  ,                                       !- Outside Boundary Condition Object
  NoSun,                                  !- Sun Exposure
  NoWind,                                 !- Wind Exposure
  ,                                       !- View Factor to Ground
  ,                                       !- Number of Vertices
  4.80160000000001, -55, 0,               !- X,Y,Z Vertex 1 {m}
  4.80160000000001, -55, 1.526,           !- X,Y,Z Vertex 2 {m}
  -4.80159999999999, -55, 1.526,          !- X,Y,Z Vertex 3 {m}
  -4.80159999999999, -55, 0;              !- X,Y,Z Vertex 4 {m}

BuildingSurface:Detailed,
  surface Window_west,                    !- Name
  Wall,                                   !- Surface Type
  Construction 1,                         !- Construction Name
  living,                                 !- Zone Name
  Adiabatic,                              !- Outside Boundary Condition
  ,                                       !- Outside Boundary Condition Object
  NoSun,                                  !- Sun Exposure
  NoWind,                                 !- Wind Exposure
  ,                                       !- View Factor to Ground
  ,                                       !- Number of Vertices
  -57.5, -4.80160000000001, 0,            !- X,Y,Z Vertex 1 {m}
  -57.5, -4.80160000000001, 1.526,        !- X,Y,Z Vertex 2 {m}
  -57.5, 4.80159999999999, 1.526,         !- X,Y,Z Vertex 3 {m}
  -57.5, 4.80159999999999, 0;             !- X,Y,Z Vertex 4 {m}

InternalMass,
  living Partition,                       !- Name
  FinUninsFinWall,                        !- Construction Name
  living,                                 !- Zone Name
  200.480742047003;                       !- Surface Area {m2}

InternalMass,
  residential furniture mass living,      !- Name
  residential furniture construction living, !- Construction Name
  living,                                 !- Zone Name
  130.064256;                             !- Surface Area {m2}

People,
  residential occupants|living,           !- Name
  living,                                 !- Zone or ZoneList Name
  residential occupants schedule,         !- Number of People Schedule Name
  People,                                 !- Number of People Calculation Method
  4,                                      !- Number of People
  ,                                       !- People per Zone Floor Area {person/m2}
  ,                                       !- Zone Floor Area per Person {m2/person}
  0.314170909090909,                      !- Fraction Radiant
  0.563030303030303,                      !- Sensible Heat Fraction
  Schedule Ruleset 1,                     !- Activity Level Schedule Name
  0,                                      !- Carbon Dioxide Generation Rate {m3/s-W}
  No,                                     !- Enable ASHRAE 55 Comfort Warnings
  ZoneAveraged;                           !- Mean Radiant Temperature Calculation Type

Lights,
  residential lighting living,            !- Name
  living,                                 !- Zone or ZoneList Name
  residential lighting schedule,          !- Schedule Name
  LightingLevel,                          !- Design Level Calculation Method
  980.003917001803,                       !- Lighting Level {W}
  ,                                       !- Watts per Zone Floor Area {W/m2}
  ,                                       !- Watts per Person {W/person}
  0,                                      !- Return Air Fraction
  0.6,                                    !- Fraction Radiant
  0.2,                                    !- Fraction Visible
  1,                                      !- Fraction Replaceable
  General;                                !- End-Use Subcategory

ScheduleTypeLimits,
  Fractional,                             !- Name
  0,                                      !- Lower Limit Value {BasedOnField A3}
  1,                                      !- Upper Limit Value {BasedOnField A3}
  Continuous;                             !- Numeric Type

Schedule:Day:Interval,
  residential lighting schedule allday1,  !- Name
  Fractional,                             !- Schedule Type Limits Name
  No,                                     !- Interpolate to Timestep
  01:00,                                  !- Time 1 {hh:mm}
  0.123751072162069,                      !- Value Until Time 1
  02:00,                                  !- Time 2 {hh:mm}
  0.0742506432972411,                     !- Value Until Time 2
  03:00,                                  !- Time 3 {hh:mm}
  0.0495004288648274,                     !- Value Until Time 3
  04:00,                                  !- Time 4 {hh:mm}
  0.0495004288648274,                     !- Value Until Time 4
  05:00,                                  !- Time 5 {hh:mm}
  0.0550333376161933,                     !- Value Until Time 5
  06:00,                                  !- Time 6 {hh:mm}
  0.151005022179023,                      !- Value Until Time 6
  07:00,                                  !- Time 7 {hh:mm}
  0.354518107603027,                      !- Value Until Time 7
  08:00,                                  !- Time 8 {hh:mm}
  0.448633526083425,                      !- Value Until Time 8
  09:00,                                  !- Time 9 {hh:mm}
  0.476771434799925,                      !- Value Until Time 9
  10:00,                                  !- Time 10 {hh:mm}
  0.490087694413797,                      !- Value Until Time 10
  11:00,                                  !- Time 11 {hh:mm}
  0.47676254750322,                       !- Value Until Time 11
  12:00,                                  !- Time 12 {hh:mm}
  0.458300917761086,                      !- Value Until Time 12
  13:00,                                  !- Time 13 {hh:mm}
  0.444975770850508,                      !- Value Until Time 13
  14:00,                                  !- Time 14 {hh:mm}
  0.441054650935996,                      !- Value Until Time 14
  15:00,                                  !- Time 15 {hh:mm}
  0.447927143848223,                      !- Value Until Time 15
  16:00,                                  !- Time 16 {hh:mm}
  0.489859618497789,                      !- Value Until Time 16
  17:00,                                  !- Time 17 {hh:mm}
  0.60158531869683,                       !- Value Until Time 17
  18:00,                                  !- Time 18 {hh:mm}
  0.797807347679347,                      !- Value Until Time 18
  19:00,                                  !- Time 19 {hh:mm}
  0.978645640193189,                      !- Value Until Time 19
  20:00,                                  !- Time 20 {hh:mm}
  0.990804617727098,                      !- Value Until Time 20
  21:00,                                  !- Time 21 {hh:mm}
  0.82257845347793,                       !- Value Until Time 21
  22:00,                                  !- Time 22 {hh:mm}
  0.620620743953026,                      !- Value Until Time 22
  23:00,                                  !- Time 23 {hh:mm}
  0.536431278270202,                      !- Value Until Time 23
  24:00,                                  !- Time 24 {hh:mm}
  0.249225449441605;                      !- Value Until Time 24

Schedule:Week:Daily,
  Schedule:Week:Daily {3cf08b9a-a88d-4d3b-8ac7-c62de8ac96ba}, !- Name
  Schedule Day 16,                        !- Sunday Schedule:Day Name
  Schedule Day 16,                        !- Monday Schedule:Day Name
  Schedule Day 16,                        !- Tuesday Schedule:Day Name
  Schedule Day 16,                        !- Wednesday Schedule:Day Name
  residential lighting schedule allday1,  !- Thursday Schedule:Day Name
  residential lighting schedule allday1,  !- Friday Schedule:Day Name
  residential lighting schedule allday1,  !- Saturday Schedule:Day Name
  Schedule Day 16,                        !- Holiday Schedule:Day Name
  Schedule Day 16,                        !- SummerDesignDay Schedule:Day Name
  Schedule Day 16,                        !- WinterDesignDay Schedule:Day Name
  Schedule Day 16,                        !- CustomDay1 Schedule:Day Name
  Schedule Day 16;                        !- CustomDay2 Schedule:Day Name

Schedule:Day:Interval,
  residential lighting schedule allday2,  !- Name
  Fractional,                             !- Schedule Type Limits Name
  No,                                     !- Interpolate to Timestep
  01:00,                                  !- Time 1 {hh:mm}
  0.123751072162069,                      !- Value Until Time 1
  02:00,                                  !- Time 2 {hh:mm}
  0.0742506432972411,                     !- Value Until Time 2
  03:00,                                  !- Time 3 {hh:mm}
  0.0495004288648274,                     !- Value Until Time 3
  04:00,                                  !- Time 4 {hh:mm}
  0.0495004288648274,                     !- Value Until Time 4
  05:00,                                  !- Time 5 {hh:mm}
  0.0547502792918702,                     !- Value Until Time 5
  06:00,                                  !- Time 6 {hh:mm}
  0.14959356840383,                       !- Value Until Time 6
  07:00,                                  !- Time 7 {hh:mm}
  0.351204403766361,                      !- Value Until Time 7
  08:00,                                  !- Time 8 {hh:mm}
  0.444440119301778,                      !- Value Until Time 8
  09:00,                                  !- Time 9 {hh:mm}
  0.470027235967276,                      !- Value Until Time 9
  10:00,                                  !- Time 10 {hh:mm}
  0.480931242449438,                      !- Value Until Time 10
  11:00,                                  !- Time 11 {hh:mm}
  0.467730646554718,                      !- Value Until Time 11
  12:00,                                  !- Time 12 {hh:mm}
  0.449441578867937,                      !- Value Until Time 12
  13:00,                                  !- Time 13 {hh:mm}
  0.436240982973216,                      !- Value Until Time 13
  14:00,                                  !- Time 14 {hh:mm}
  0.432356514021874,                      !- Value Until Time 14
  15:00,                                  !- Time 15 {hh:mm}
  0.435457808080091,                      !- Value Until Time 15
  16:00,                                  !- Time 16 {hh:mm}
  0.457540823996247,                      !- Value Until Time 16
  17:00,                                  !- Time 17 {hh:mm}
  0.526174177455289,                      !- Value Until Time 17
  18:00,                                  !- Time 18 {hh:mm}
  0.674382394551488,                      !- Value Until Time 18
  19:00,                                  !- Time 19 {hh:mm}
  0.867815494038475,                      !- Value Until Time 19