
OS:Version,
  {3b527354-6767-483b-866f-95b4d2936162}, !- Handle
  1.3.1;                                  !- Version Identifier

OS:Construction,
  {074f90e6-d945-4ea0-bd9f-76bb17a06423}, !- Handle
  ExtInsFinWall,                          !- Name
  ,                                       !- Surface Rendering Name
  {55b08b10-81ba-415f-824b-ee9db76b4b31}, !- Layer 1
  {ffe6d8a7-3779-423a-b531-cd398a86a8b3}, !- Layer 2
  {9bc5b577-703f-4d73-9d9a-ddd38f96540b}, !- Layer 3
  {461a9b75-649c-4c38-adff-6581e7a4ea56}, !- Layer 4
  {8e3b0745-c66d-49e7-8682-9d628a6a15a4}, !- Layer 5
  {07d48fca-1d06-4f59-8357-7a825a0e3817}; !- Layer 6

OS:Material,
  {55b08b10-81ba-415f-824b-ee9db76b4b31}, !- Handle
  Exterior_Finish_Vinyl_Light,            !- Name
  Rough,                                  !- Roughness
  0.009525,                               !- Thickness {m}
  0.089435,                               !- Conductivity {W/m-K}
  177.822,                                !- Density {kg/m3}
  1046.75,                                !- Specific Heat {J/kg-K}
  0.9,                                    !- Thermal Absorptance
  0.3,                                    !- Solar Absorptance
  0.3;                                    !- Visible Absorptance

OS:Material,
  {07d48fca-1d06-4f59-8357-7a825a0e3817}, !- Handle
  GypsumBoard_1_2in,                      !- Name
  Rough,                                  !- Roughness
  0.0127,                                 !- Thickness {m}
  0.1602906,                              !- Conductivity {W/m-K}
  801,                                    !- Density {kg/m3}
  837.4;                                  !- Specific Heat {J/kg-K}

OS:Material,
  {ffe6d8a7-3779-423a-b531-cd398a86a8b3}, !- Handle
  SplineLayer,                            !- Name
  Rough,                                  !- Roughness
  0.0127,                                 !- Thickness {m}
  0.0308019122044946,                     !- Conductivity {W/m-K}
  147.0636,                               !- Density {kg/m3}
  1214.23;                                !- Specific Heat {J/kg-K}

OS:Material,
  {9bc5b577-703f-4d73-9d9a-ddd38f96540b}, !- Handle
  WallIns,                                !- Name
  Rough,                                  !- Roughness
  0.161925,                               !- Thickness {m}
  0.0419549778666667,                     !- Conductivity {W/m-K}
  107.0136,                               !- Density {kg/m3}
  1214.23;                                !- Specific Heat {J/kg-K}

OS:Material,
  {461a9b75-649c-4c38-adff-6581e7a4ea56}, !- Handle
  SplineLayer 1,                          !- Name
  Rough,                                  !- Roughness
  0.0127,                                 !- Thickness {m}
  0.0308019122044946,                     !- Conductivity {W/m-K}
  147.0636,                               !- Density {kg/m3}
  1214.23;                                !- Specific Heat {J/kg-K}

OS:Material,
  {8e3b0745-c66d-49e7-8682-9d628a6a15a4}, !- Handle
  IntSheathing,                           !- Name
  Rough,                                  !- Roughness
  0.011176,                               !- Thickness {m}
  0.1154577,                              !- Conductivity {W/m-K}
  512.64,                                 !- Density {kg/m3}
  1214.23;                                !- Specific Heat {J/kg-K}

