
OS:Version,
  {5184d7a0-2793-45e7-b92f-baa9166bd38d}, !- Handle
  1.3.1;                                  !- Version Identifier

OS:Construction,
  {7e2c676b-c457-4ca6-8a3a-f3bb4612f826}, !- Handle
  GrndInsUnfinCSWall,                     !- Name
  ,                                       !- Surface Rendering Name
  {d29868f7-a500-4a71-9f45-32bc0e5e7604}, !- Layer 1
  {3a2ec49f-e344-41ed-bc66-424a338da790}, !- Layer 2
  {bc3290c2-3686-4fa6-99a4-59a81e7e61f1}; !- Layer 3

OS:Material,
  {d29868f7-a500-4a71-9f45-32bc0e5e7604}, !- Handle
  Soil_12in,                              !- Name
  Rough,                                  !- Roughness
  0.3048,                                 !- Thickness {m}
  1.731,                                  !- Conductivity {W/m-K}
  1842.3,                                 !- Density {kg/m3}
  418.7;                                  !- Specific Heat {J/kg-K}

OS:Material,
  {3a2ec49f-e344-41ed-bc66-424a338da790}, !- Handle
  Concrete_8in,                           !- Name
  Rough,                                  !- Roughness
  0.2032,                                 !- Thickness {m}
  1.3114056,                              !- Conductivity {W/m-K}
  2242.79999999999,                       !- Density {kg/m3}
  837.4;                                  !- Specific Heat {J/kg-K}

OS:Material,
  {bc3290c2-3686-4fa6-99a4-59a81e7e61f1}, !- Handle
  CWallIns,                               !- Name
  Rough,                                  !- Roughness
  0.09144,                                !- Thickness {m}
  0.02885,                                !- Conductivity {W/m-K}
  32.04,                                  !- Density {kg/m3}
  1214.23;                                !- Specific Heat {J/kg-K}

