
OS:Version,
  {33a574b7-4dec-42ae-a03b-339c401de36e}, !- Handle
  1.12.2;                                 !- Version Identifier

OS:SimulationControl,
  {df175709-d8cd-41c8-8f28-774d7a994d49}, !- Handle
  No,                                     !- Do Zone Sizing Calculation
  No,                                     !- Do System Sizing Calculation
  No,                                     !- Do Plant Sizing Calculation
  No,                                     !- Run Simulation for Sizing Periods
  Yes,                                    !- Run Simulation for Weather File Run Periods
  0.05,                                   !- Loads Convergence Tolerance Value
  0.05,                                   !- Temperature Convergence Tolerance Value {deltaC}
  FullExterior,                           !- Solar Distribution
  50;                                     !- Maximum Number of Warmup Days

OS:RunPeriod,
  {eebdcd03-278c-4cc4-a4c5-8fb8071ce124}, !- Handle
  Multifamily URBANopt,                   !- Name
  1,                                      !- Begin Month
  1,                                      !- Begin Day of Month
  12,                                     !- End Month
  31,                                     !- End Day of Month
  No,                                     !- Use Weather File Holidays and Special Days
  Yes,                                    !- Use Weather File Daylight Saving Period
  No,                                     !- Apply Weekend Holiday Rule
  Yes,                                    !- Use Weather File Rain Indicators
  Yes,                                    !- Use Weather File Snow Indicators
  ;                                       !- Number of Times Runperiod to be Repeated

OS:YearDescription,
  {fbca63ed-f07c-4843-bdae-aa535cb7b454}, !- Handle
  ,                                       !- Calendar Year
  Tuesday;                                !- Day of Week for Start Day

OS:Surface,
  {08b2fd92-6138-4e3d-8e77-b074dd344f28}, !- Handle
  Wall6,                                  !- Name
  Wall,                                   !- Surface Type
  ,                                       !- Construction Name
  {8d63d987-d805-4ab0-9968-14c59c0bdc9a}, !- Space Name
  Outdoors,                               !- Outside Boundary Condition
  ,                                       !- Outside Boundary Condition Object
  SunExposed,                             !- Sun Exposure
  WindExposed,                            !- Wind Exposure
  ,                                       !- View Factor to Ground
  ,                                       !- Number of Vertices
  0, 0, 2.4384,                           !- X,Y,Z Vertex 1 {m}
  0, 0, 0,                                !- X,Y,Z Vertex 2 {m}
  13.716, 0, 0,                           !- X,Y,Z Vertex 3 {m}
  13.716, 0, 2.4384;                      !- X,Y,Z Vertex 4 {m}

OS:ThermalZone,
  {5957430b-1baa-4e9f-b686-9710fd433f25}, !- Handle
  Building Story 1 ThermalZone,           !- Name
  1,                                      !- Multiplier
  2.4384,                                 !- Ceiling Height {m}
  254.851623,                             !- Volume {m3}
  ,                                       !- Floor Area {m2}
  ,                                       !- Zone Inside Convection Algorithm
  ,                                       !- Zone Outside Convection Algorithm
  ,                                       !- Zone Conditioning Equipment List Name
  {97874510-186f-418b-9104-bb0453d63216}, !- Zone Air Inlet Port List
  {4ebf7acf-4733-46d6-ace4-d9c0a04b2a6b}, !- Zone Air Exhaust Port List
  {cb438771-0de0-4dae-ba42-2573fa691666}, !- Zone Air Node Name
  ,                                       !- Zone Return Air Node Name
  ,                                       !- Primary Daylighting Control Name
  ,                                       !- Fraction of Zone Controlled by Primary Daylighting Control
  ,                                       !- Secondary Daylighting Control Name
  ,                                       !- Fraction of Zone Controlled by Secondary Daylighting Control
  ,                                       !- Illuminance Map Name
  {7bbed485-d48b-467a-8a41-0b62e05e4441}, !- Group Rendering Name
  ,                                       !- Thermostat Name
  No;                                     !- Use Ideal Air Loads

OS:Node,
  {e80c5f0b-4bca-4050-8767-23eab73cf36b}, !- Handle
  {d2a997f6-e494-4eca-91d9-9db1c9cae2c9}, !- Name
  {cb438771-0de0-4dae-ba42-2573fa691666}, !- Inlet Port
  ;                                       !- Outlet Port

OS:Connection,
  {cb438771-0de0-4dae-ba42-2573fa691666}, !- Handle
  {e44c0d5b-105a-493f-ab2e-ad57a3011f44}, !- Name
  {5957430b-1baa-4e9f-b686-9710fd433f25}, !- Source Object
  11,                                     !- Outlet Port
  {e80c5f0b-4bca-4050-8767-23eab73cf36b}, !- Target Object
  2;                                      !- Inlet Port

OS:PortList,
  {97874510-186f-418b-9104-bb0453d63216}, !- Handle
  {eac961a2-bd53-4be2-80e4-39df92142b8e}, !- Name
  {5957430b-1baa-4e9f-b686-9710fd433f25}; !- HVAC Component

OS:PortList,
  {4ebf7acf-4733-46d6-ace4-d9c0a04b2a6b}, !- Handle
  {edf83928-07b4-4aa8-86f7-53bc059bab09}, !- Name
  {5957430b-1baa-4e9f-b686-9710fd433f25}; !- HVAC Component

OS:Sizing:Zone,
  {989f0f1f-94e4-4573-8b91-ace7544bed99}, !- Handle
  {5957430b-1baa-4e9f-b686-9710fd433f25}, !- Zone or ZoneList Name
  SupplyAirTemperature,                   !- Zone Cooling Design Supply Air Temperature Input Method
  14,                                     !- Zone Cooling Design Supply Air Temperature {C}
  11.11,                                  !- Zone Cooling Design Supply Air Temperature Difference {deltaC}
  SupplyAirTemperature,                   !- Zone Heating Design Supply Air Temperature Input Method
  40,                                     !- Zone Heating Design Supply Air Temperature {C}
  11.11,                                  !- Zone Heating Design Supply Air Temperature Difference {deltaC}
  0.0085,                                 !- Zone Cooling Design Supply Air Humidity Ratio {kg-H2O/kg-air}
  0.008,                                  !- Zone Heating Design Supply Air Humidity Ratio {kg-H2O/kg-air}
  ,                                       !- Zone Heating Sizing Factor
  ,                                       !- Zone Cooling Sizing Factor
  DesignDay,                              !- Cooling Design Air Flow Method
  ,                                       !- Cooling Design Air Flow Rate {m3/s}
  ,                                       !- Cooling Minimum Air Flow per Zone Floor Area {m3/s-m2}
  ,                                       !- Cooling Minimum Air Flow {m3/s}
  ,                                       !- Cooling Minimum Air Flow Fraction
  DesignDay,                              !- Heating Design Air Flow Method
  ,                                       !- Heating Design Air Flow Rate {m3/s}
  ,                                       !- Heating Maximum Air Flow per Zone Floor Area {m3/s-m2}
  ,                                       !- Heating Maximum Air Flow {m3/s}
  ,                                       !- Heating Maximum Air Flow Fraction
  ,                                       !- Design Zone Air Distribution Effectiveness in Cooling Mode
  ,                                       !- Design Zone Air Distribution Effectiveness in Heating Mode
  No,                                     !- Account for Dedicated Outdoor Air System
  NeutralSupplyAir,                       !- Dedicated Outdoor Air System Control Strategy
  autosize,                               !- Dedicated Outdoor Air Low Setpoint Temperature for Design {C}
  autosize;                               !- Dedicated Outdoor Air High Setpoint Temperature for Design {C}

OS:ZoneHVAC:EquipmentList,
  {c81a076d-4f52-4ee9-9cec-26dd524f13e4}, !- Handle
  {e9032ae8-b564-4c11-85ca-a73f92028315}, !- Name
  {5957430b-1baa-4e9f-b686-9710fd433f25}; !- Thermal Zone

OS:Space,
  {8d63d987-d805-4ab0-9968-14c59c0bdc9a}, !- Handle
  Building Story 1 Space,                 !- Name
  ,                                       !- Space Type Name
  ,                                       !- Default Construction Set Name
  ,                                       !- Default Schedule Set Name
  0,                                      !- Direction of Relative North {deg}
  -6.858,                                 !- X Origin {m}
  -3.81,                                  !- Y Origin {m}
  0,                                      !- Z Origin {m}
  ,                                       !- Building Story Name
  {5957430b-1baa-4e9f-b686-9710fd433f25}; !- Thermal Zone Name

OS:Surface,
  {93ea3823-9b4b-4508-b79e-f069b21bf353}, !- Handle
  Wall10,                                 !- Name
  Wall,                                   !- Surface Type
  ,                                       !- Construction Name
  {70257a76-c2a6-43f6-98d9-172584c7cce3}, !- Space Name
  Outdoors,                               !- Outside Boundary Condition
  ,                                       !- Outside Boundary Condition Object
  SunExposed,                             !- Sun Exposure
  WindExposed,                            !- Wind Exposure
  ,                                       !- View Factor to Ground
  ,                                       !- Number of Vertices
  0, 0, 2.4384,                           !- X,Y,Z Vertex 1 {m}
  0, 0, 0,                                !- X,Y,Z Vertex 2 {m}
  13.716, 0, 0,                           !- X,Y,Z Vertex 3 {m}
  13.716, 0, 2.4384;                      !- X,Y,Z Vertex 4 {m}

OS:ThermalZone,
  {ee566ce0-e8f6-4d00-9ed2-8910ec8195b9}, !- Handle
  Building Story 2 ThermalZone,           !- Name
  1,                                      !- Multiplier
  2.4384,                                 !- Ceiling Height {m}
  254.851623,                             !- Volume {m3}
  ,                                       !- Floor Area {m2}
  ,                                       !- Zone Inside Convection Algorithm
  ,                                       !- Zone Outside Convection Algorithm
  ,                                       !- Zone Conditioning Equipment List Name
  {23669f22-144e-4cb4-9ed3-1e50868510ed}, !- Zone Air Inlet Port List
  {3e364eb0-04be-49c8-8338-6f215ca2433f}, !- Zone Air Exhaust Port List
  {bfef9b73-c1fe-4486-bf68-5ccbcbf4820d}, !- Zone Air Node Name
  ,                                       !- Zone Return Air Node Name
  ,                                       !- Primary Daylighting Control Name
  ,                                       !- Fraction of Zone Controlled by Primary Daylighting Control
  ,                                       !- Secondary Daylighting Control Name
  ,                                       !- Fraction of Zone Controlled by Secondary Daylighting Control
  ,                                       !- Illuminance Map Name
  {ca5b3307-1187-41b5-862a-a93eca3e3c69}, !- Group Rendering Name
  ,                                       !- Thermostat Name
  No;                                     !- Use Ideal Air Loads

OS:Node,
  {7222fca7-5a8e-4d94-b69e-e367448f84d4}, !- Handle
  {e022d1a2-d149-4148-8a87-877442fe38ef}, !- Name
  {bfef9b73-c1fe-4486-bf68-5ccbcbf4820d}, !- Inlet Port
  ;                                       !- Outlet Port

OS:Connection,
  {bfef9b73-c1fe-4486-bf68-5ccbcbf4820d}, !- Handle
  {fc2646d3-03d3-4c1c-b832-9fb5c20143b2}, !- Name
  {ee566ce0-e8f6-4d00-9ed2-8910ec8195b9}, !- Source Object
  11,                                     !- Outlet Port
  {7222fca7-5a8e-4d94-b69e-e367448f84d4}, !- Target Object
  2;                                      !- Inlet Port

OS:PortList,
  {23669f22-144e-4cb4-9ed3-1e50868510ed}, !- Handle
  {71a6b571-b4af-4c85-8273-ba79d95c90c6}, !- Name
  {ee566ce0-e8f6-4d00-9ed2-8910ec8195b9}; !- HVAC Component

OS:PortList,
  {3e364eb0-04be-49c8-8338-6f215ca2433f}, !- Handle
  {40615bfa-06ff-4f81-88d0-cc558add6981}, !- Name
  {ee566ce0-e8f6-4d00-9ed2-8910ec8195b9}; !- HVAC Component

OS:Sizing:Zone,
  {83d5eef7-e842-4678-8722-27557458c8c2}, !- Handle
  {ee566ce0-e8f6-4d00-9ed2-8910ec8195b9}, !- Zone or ZoneList Name
  SupplyAirTemperature,                   !- Zone Cooling Design Supply Air Temperature Input Method
  14,                                     !- Zone Cooling Design Supply Air Temperature {C}
  11.11,                                  !- Zone Cooling Design Supply Air Temperature Difference {deltaC}
  SupplyAirTemperature,                   !- Zone Heating Design Supply Air Temperature Input Method
  40,                                     !- Zone Heating Design Supply Air Temperature {C}
  11.11,                                  !- Zone Heating Design Supply Air Temperature Difference {deltaC}
  0.0085,                                 !- Zone Cooling Design Supply Air Humidity Ratio {kg-H2O/kg-air}
  0.008,                                  !- Zone Heating Design Supply Air Humidity Ratio {kg-H2O/kg-air}
  ,                                       !- Zone Heating Sizing Factor
  ,                                       !- Zone Cooling Sizing Factor
  DesignDay,                              !- Cooling Design Air Flow Method
  ,                                       !- Cooling Design Air Flow Rate {m3/s}
  ,                                       !- Cooling Minimum Air Flow per Zone Floor Area {m3/s-m2}
  ,                                       !- Cooling Minimum Air Flow {m3/s}
  ,                                       !- Cooling Minimum Air Flow Fraction
  DesignDay,                              !- Heating Design Air Flow Method
  ,                                       !- Heating Design Air Flow Rate {m3/s}
  ,                                       !- Heating Maximum Air Flow per Zone Floor Area {m3/s-m2}
  ,                                       !- Heating Maximum Air Flow {m3/s}
  ,                                       !- Heating Maximum Air Flow Fraction
  ,                                       !- Design Zone Air Distribution Effectiveness in Cooling Mode
  ,                                       !- Design Zone Air Distribution Effectiveness in Heating Mode
  No,                                     !- Account for Dedicated Outdoor Air System
  NeutralSupplyAir,                       !- Dedicated Outdoor Air System Control Strategy
  autosize,                               !- Dedicated Outdoor Air Low Setpoint Temperature for Design {C}
  autosize;                               !- Dedicated Outdoor Air High Setpoint Temperature for Design {C}

OS:ZoneHVAC:EquipmentList,
  {42973386-030e-4a9d-96d9-923da925a853}, !- Handle
  {231721c4-091e-4f31-815e-b7b49c722a91}, !- Name
  {ee566ce0-e8f6-4d00-9ed2-8910ec8195b9}; !- Thermal Zone

OS:Space,
  {70257a76-c2a6-43f6-98d9-172584c7cce3}, !- Handle
  Building Story 2 Space,                 !- Name
  ,                                       !- Space Type Name
  ,                                       !- Default Construction Set Name
  ,                                       !- Default Schedule Set Name
  0,                                      !- Direction of Relative North {deg}
  -6.858,                                 !- X Origin {m}
  -3.81,                                  !- Y Origin {m}
  2.4384,                                 !- Z Origin {m}
  ,                                       !- Building Story Name
  {ee566ce0-e8f6-4d00-9ed2-8910ec8195b9}; !- Thermal Zone Name

OS:Surface,
  {ccd0b740-91b7-46db-a04a-6a75e0530a63}, !- Handle
  Wall24,                                 !- Name
  Wall,                                   !- Surface Type
  ,                                       !- Construction Name
  {7f54b2e3-f6f0-4463-928b-1ed9a3b95e2a}, !- Space Name
  Outdoors,                               !- Outside Boundary Condition
  ,                                       !- Outside Boundary Condition Object
  SunExposed,                             !- Sun Exposure
  WindExposed,                            !- Wind Exposure
  ,                                       !- View Factor to Ground
  ,                                       !- Number of Vertices
  13.716, 7.62, 2.4384,                   !- X,Y,Z Vertex 1 {m}
  13.716, 7.62, 2.16535,                  !- X,Y,Z Vertex 2 {m}
  0, 7.62, 2.16535,                       !- X,Y,Z Vertex 3 {m}
  0, 7.62, 2.4384;                        !- X,Y,Z Vertex 4 {m}

OS:ThermalZone,
  {cd8dbdbb-e703-4777-a0e8-33d20329d4ee}, !- Handle
  Building Story 0 ThermalZone,           !- Name
  1,                                      !- Multiplier
  2.4384,                                 !- Ceiling Height {m}
  254.851623,                             !- Volume {m3}
  ,                                       !- Floor Area {m2}
  ,                                       !- Zone Inside Convection Algorithm
  ,                                       !- Zone Outside Convection Algorithm
  ,                                       !- Zone Conditioning Equipment List Name
  {dd05f58b-41af-4cbc-935d-af21e867420f}, !- Zone Air Inlet Port List
  {18abafda-d9a9-4175-aa6a-04d60dbc858e}, !- Zone Air Exhaust Port List
  {12cdba51-1810-4f80-81d8-6a00082b1318}, !- Zone Air Node Name
  ,                                       !- Zone Return Air Node Name
  ,                                       !- Primary Daylighting Control Name
  ,                                       !- Fraction of Zone Controlled by Primary Daylighting Control
  ,                                       !- Secondary Daylighting Control Name
  ,                                       !- Fraction of Zone Controlled by Secondary Daylighting Control
  ,                                       !- Illuminance Map Name
  {f7813ca1-5650-476d-afeb-bee7574a8fe3}, !- Group Rendering Name
  ,                                       !- Thermostat Name
  No;                                     !- Use Ideal Air Loads

OS:Node,
  {a3d3c653-704d-4fce-a6d2-59a95545825f}, !- Handle
  {137f68c1-e16e-4400-983f-402b18bb12e8}, !- Name
  {12cdba51-1810-4f80-81d8-6a00082b1318}, !- Inlet Port
  ;                                       !- Outlet Port

OS:Connection,
  {12cdba51-1810-4f80-81d8-6a00082b1318}, !- Handle
  {fe1e6d03-3f1a-4eb5-b4f8-d39128b6c760}, !- Name
  {cd8dbdbb-e703-4777-a0e8-33d20329d4ee}, !- Source Object
  11,                                     !- Outlet Port
  {a3d3c653-704d-4fce-a6d2-59a95545825f}, !- Target Object
  2;                                      !- Inlet Port

OS:PortList,
  {dd05f58b-41af-4cbc-935d-af21e867420f}, !- Handle
  {0905cbf8-1547-4167-9dae-c5197a9966de}, !- Name
  {cd8dbdbb-e703-4777-a0e8-33d20329d4ee}; !- HVAC Component

OS:PortList,
  {18abafda-d9a9-4175-aa6a-04d60dbc858e}, !- Handle
  {9721a436-222f-4719-a511-3ce3a98f571a}, !- Name
  {cd8dbdbb-e703-4777-a0e8-33d20329d4ee}; !- HVAC Component

OS:Sizing:Zone,
  {0e031bd0-4f52-4b9f-9e66-76287c586f78}, !- Handle
  {cd8dbdbb-e703-4777-a0e8-33d20329d4ee}, !- Zone or ZoneList Name
  SupplyAirTemperature,                   !- Zone Cooling Design Supply Air Temperature Input Method
  14,                                     !- Zone Cooling Design Supply Air Temperature {C}
  11.11,                                  !- Zone Cooling Design Supply Air Temperature Difference {deltaC}
  SupplyAirTemperature,                   !- Zone Heating Design Supply Air Temperature Input Method
  40,                                     !- Zone Heating Design Supply Air Temperature {C}
  11.11,                                  !- Zone Heating Design Supply Air Temperature Difference {deltaC}
  0.0085,                                 !- Zone Cooling Design Supply Air Humidity Ratio {kg-H2O/kg-air}
  0.008,                                  !- Zone Heating Design Supply Air Humidity Ratio {kg-H2O/kg-air}
  ,                                       !- Zone Heating Sizing Factor
  ,                                       !- Zone Cooling Sizing Factor
  DesignDay,                              !- Cooling Design Air Flow Method
  ,                                       !- Cooling Design Air Flow Rate {m3/s}
  ,                                       !- Cooling Minimum Air Flow per Zone Floor Area {m3/s-m2}
  ,                                       !- Cooling Minimum Air Flow {m3/s}
  ,                                       !- Cooling Minimum Air Flow Fraction
  DesignDay,                              !- Heating Design Air Flow Method
  ,                                       !- Heating Design Air Flow Rate {m3/s}
  ,                                       !- Heating Maximum Air Flow per Zone Floor Area {m3/s-m2}
  ,                                       !- Heating Maximum Air Flow {m3/s}
  ,                                       !- Heating Maximum Air Flow Fraction
  ,                                       !- Design Zone Air Distribution Effectiveness in Cooling Mode
  ,                                       !- Design Zone Air Distribution Effectiveness in Heating Mode
  No,                                     !- Account for Dedicated Outdoor Air System
  NeutralSupplyAir,                       !- Dedicated Outdoor Air System Control Strategy
  autosize,                               !- Dedicated Outdoor Air Low Setpoint Temperature for Design {C}
  autosize;                               !- Dedicated Outdoor Air High Setpoint Temperature for Design {C}

OS:ZoneHVAC:EquipmentList,
  {6309af74-4a07-404f-b654-ab5014da4a85}, !- Handle
  {ef48944d-0ea2-4212-b01a-95ce8780e43c}, !- Name
  {cd8dbdbb-e703-4777-a0e8-33d20329d4ee}; !- Thermal Zone

OS:Space,
  {7f54b2e3-f6f0-4463-928b-1ed9a3b95e2a}, !- Handle
  Building Story 0 Space,                 !- Name
  ,                                       !- Space Type Name
  ,                                       !- Default Construction Set Name
  ,                                       !- Default Schedule Set Name
  0,                                      !- Direction of Relative North {deg}
  -6.858,                                 !- X Origin {m}
  -3.81,                                  !- Y Origin {m}
  -2.4384,                                !- Z Origin {m}
  ,                                       !- Building Story Name
  {cd8dbdbb-e703-4777-a0e8-33d20329d4ee}; !- Thermal Zone Name

OS:Surface,
  {6434b6ab-3923-48fe-8837-4ab317371bad}, !- Handle
  Wall22,                                 !- Name
  Wall,                                   !- Surface Type
  ,                                       !- Construction Name
  {7f54b2e3-f6f0-4463-928b-1ed9a3b95e2a}, !- Space Name
  Outdoors,                               !- Outside Boundary Condition
  ,                                       !- Outside Boundary Condition Object
  SunExposed,                             !- Sun Exposure
  WindExposed,                            !- Wind Exposure
  ,                                       !- View Factor to Ground
  ,                                       !- Number of Vertices
  0, 0, 2.4384,                           !- X,Y,Z Vertex 1 {m}
  0, 0, 2.16535,                          !- X,Y,Z Vertex 2 {m}
  13.716, 0, 2.16535,                     !- X,Y,Z Vertex 3 {m}
  13.716, 0, 2.4384;                      !- X,Y,Z Vertex 4 {m}

OS:Surface,
  {8c082f73-19b5-4b5f-8172-7bdfc91c663e}, !- Handle
  Wall1,                                  !- Name
  Wall,                                   !- Surface Type
  ,                                       !- Construction Name
  {7f54b2e3-f6f0-4463-928b-1ed9a3b95e2a}, !- Space Name
  ground,                                 !- Outside Boundary Condition
  ,                                       !- Outside Boundary Condition Object
  NoSun,                                  !- Sun Exposure
  NoWind,                                 !- Wind Exposure
  0,                                      !- View Factor to Ground
  ,                                       !- Number of Vertices
  0, 7.62, 2.4384,                        !- X,Y,Z Vertex 1 {m}
  0, 7.62, 0,                             !- X,Y,Z Vertex 2 {m}
  0, 0, 0,                                !- X,Y,Z Vertex 3 {m}
  0, 0, 2.4384;                           !- X,Y,Z Vertex 4 {m}

OS:Surface,
  {f99229f8-6798-4c2a-af6a-b4402dcfa4b5}, !- Handle
  Floor4,                                 !- Name
  Floor,                                  !- Surface Type
  ,                                       !- Construction Name
  {dc54e5ab-b5e1-4655-b563-3d4cf9e536f6}, !- Space Name
  Adiabatic,                              !- Outside Boundary Condition
  ,                                       !- Outside Boundary Condition Object
  NoSun,                                  !- Sun Exposure
  NoWind,                                 !- Wind Exposure
  0,                                      !- View Factor to Ground
  ,                                       !- Number of Vertices
  13.716, 7.62, 0,                        !- X,Y,Z Vertex 1 {m}
  13.716, 0, 0,                           !- X,Y,Z Vertex 2 {m}
  0, 0, 0,                                !- X,Y,Z Vertex 3 {m}
  0, 7.62, 0;                             !- X,Y,Z Vertex 4 {m}

OS:ThermalZone,
  {68ba49f7-96e6-4d15-9ecc-16a9da82d018}, !- Handle
  Building Story 3 ThermalZone,           !- Name
  1,                                      !- Multiplier
  2.4384,                                 !- Ceiling Height {m}
  254.851623,                             !- Volume {m3}
  ,                                       !- Floor Area {m2}
  ,                                       !- Zone Inside Convection Algorithm
  ,                                       !- Zone Outside Convection Algorithm
  ,                                       !- Zone Conditioning Equipment List Name
  {bb91bd1e-408a-4962-8876-cbff1c605d62}, !- Zone Air Inlet Port List
  {aedb03b2-0933-4930-a3a0-0d10b6af3f0e}, !- Zone Air Exhaust Port List
  {001543a2-f982-4913-83b7-309116d5c854}, !- Zone Air Node Name
  ,                                       !- Zone Return Air Node Name
  ,                                       !- Primary Daylighting Control Name
  ,                                       !- Fraction of Zone Controlled by Primary Daylighting Control
  ,                                       !- Secondary Daylighting Control Name
  ,                                       !- Fraction of Zone Controlled by Secondary Daylighting Control
  ,                                       !- Illuminance Map Name
  {68e28763-8729-4cda-9cd8-9133a48984fa}, !- Group Rendering Name
  ,                                       !- Thermostat Name
  No;                                     !- Use Ideal Air Loads

OS:Node,
  {72fc3d88-50f4-435e-ad52-a2747914825d}, !- Handle
  {c2890efd-5943-4441-93d3-954dd2d59052}, !- Name
  {001543a2-f982-4913-83b7-309116d5c854}, !- Inlet Port
  ;                                       !- Outlet Port

OS:Connection,
  {001543a2-f982-4913-83b7-309116d5c854}, !- Handle
  {9a41e839-ff1d-44c3-a705-5978d7d5d424}, !- Name
  {68ba49f7-96e6-4d15-9ecc-16a9da82d018}, !- Source Object
  11,                                     !- Outlet Port
  {72fc3d88-50f4-435e-ad52-a2747914825d}, !- Target Object
  2;                                      !- Inlet Port

OS:PortList,
  {bb91bd1e-408a-4962-8876-cbff1c605d62}, !- Handle
  {c5616b5a-d367-409f-9967-1f0c2fed588c}, !- Name
  {68ba49f7-96e6-4d15-9ecc-16a9da82d018}; !- HVAC Component

OS:PortList,
  {aedb03b2-0933-4930-a3a0-0d10b6af3f0e}, !- Handle
  {48289ce3-882d-4a39-8561-f0f4761adc2c}, !- Name
  {68ba49f7-96e6-4d15-9ecc-16a9da82d018}; !- HVAC Component

OS:Sizing:Zone,
  {32abf941-0c5e-4762-a348-104659c4686b}, !- Handle
  {68ba49f7-96e6-4d15-9ecc-16a9da82d018}, !- Zone or ZoneList Name
  SupplyAirTemperature,                   !- Zone Cooling Design Supply Air Temperature Input Method
  14,                                     !- Zone Cooling Design Supply Air Temperature {C}
  11.11,                                  !- Zone Cooling Design Supply Air Temperature Difference {deltaC}
  SupplyAirTemperature,                   !- Zone Heating Design Supply Air Temperature Input Method
  40,                                     !- Zone Heating Design Supply Air Temperature {C}
  11.11,                                  !- Zone Heating Design Supply Air Temperature Difference {deltaC}
  0.0085,                                 !- Zone Cooling Design Supply Air Humidity Ratio {kg-H2O/kg-air}
  0.008,                                  !- Zone Heating Design Supply Air Humidity Ratio {kg-H2O/kg-air}
  ,                                       !- Zone Heating Sizing Factor
  ,                                       !- Zone Cooling Sizing Factor
  DesignDay,                              !- Cooling Design Air Flow Method
  ,                                       !- Cooling Design Air Flow Rate {m3/s}
  ,                                       !- Cooling Minimum Air Flow per Zone Floor Area {m3/s-m2}
  ,                                       !- Cooling Minimum Air Flow {m3/s}
  ,                                       !- Cooling Minimum Air Flow Fraction
  DesignDay,                              !- Heating Design Air Flow Method
  ,                                       !- Heating Design Air Flow Rate {m3/s}
  ,                                       !- Heating Maximum Air Flow per Zone Floor Area {m3/s-m2}
  ,                                       !- Heating Maximum Air Flow {m3/s}
  ,                                       !- Heating Maximum Air Flow Fraction
  ,                                       !- Design Zone Air Distribution Effectiveness in Cooling Mode
  ,                                       !- Design Zone Air Distribution Effectiveness in Heating Mode
  No,                                     !- Account for Dedicated Outdoor Air System
  NeutralSupplyAir,                       !- Dedicated Outdoor Air System Control Strategy
  autosize,                               !- Dedicated Outdoor Air Low Setpoint Temperature for Design {C}