
OS:Version,
  {fc003c06-618b-4051-9b37-6b6f71b12672}, !- Handle
  1.12.2;                                 !- Version Identifier

OS:ClimateZones,
  {135edfab-17e7-40db-a436-27d385a8cd6d}, !- Handle
  ,                                       !- Active Institution
  ,                                       !- Active Year
  ASHRAE,                                 !- Climate Zone Institution Name 1
  ANSI/ASHRAE Standard 169,               !- Climate Zone Document Name 1
  2006,                                   !- Climate Zone Document Year 1
  ,                                       !- Climate Zone Value 1
  CEC,                                    !- Climate Zone Institution Name 2
  California Climate Zone Descriptions,   !- Climate Zone Document Name 2
  1995,                                   !- Climate Zone Document Year 2
  ,                                       !- Climate Zone Value 2
  Building America,                       !- Climate Zone Institution Name 3
  ,                                       !- Climate Zone Document Name 3
  0,                                      !- Climate Zone Document Year 3
  Cold;                                   !- Climate Zone Value 3

OS:YearDescription,
  {513d8dda-86cb-442a-b01c-1f7f0e0ac70e}; !- Handle

OS:RadianceParameters,
  {270a96f1-3c86-4b75-a667-cdf22790e2c8}, !- Handle
  1,                                      !- Accumulated Rays per Record
  0,                                      !- Direct Threshold
  1,                                      !- Direct Certainty
  1,                                      !- Direct Jitter
  1,                                      !- Direct Pretest
  6,                                      !- Ambient Bounces VMX
  2,                                      !- Ambient Bounces DMX
  4050,                                   !- Ambient Divisions VMX
  512,                                    !- Ambient Divisions DMX
  256,                                    !- Ambient Supersamples
  0.001,                                  !- Limit Weight VMX
  0.001,                                  !- Limit Weight DMX
  500,                                    !- Klems Sampling Density
  146;                                    !- Sky Discretization Resolution

OS:SimulationControl,
  {2c487a4c-bac9-4ac5-b669-1e49d9da7c2b}, !- Handle
  ,                                       !- Do Zone Sizing Calculation
  ,                                       !- Do System Sizing Calculation
  ,                                       !- Do Plant Sizing Calculation
  No,                                     !- Run Simulation for Sizing Periods
  ,                                       !- Run Simulation for Weather File Run Periods
  0.04,                                   !- Loads Convergence Tolerance Value
  ,                                       !- Temperature Convergence Tolerance Value {deltaC}
  ,                                       !- Solar Distribution
  ,                                       !- Maximum Number of Warmup Days
  2;                                      !- Minimum Number of Warmup Days

OS:Sizing:Parameters,
  {dde5af6f-7923-4600-a28a-7556673a0266}, !- Handle
  1.25,                                   !- Heating Sizing Factor
  1.15;                                   !- Cooling Sizing Factor

OS:Timestep,
  {4ebc9f1e-4707-402e-9844-67eb1ffbd522}, !- Handle
  2;                                      !- Number of Timesteps per Hour

OS:OutputControl:ReportingTolerances,
  {65797aa2-06a9-45fe-b69d-bc6e060399d3}; !- Handle

OS:ConvergenceLimits,
  {9fc11aba-8822-4f3d-970c-46391ba4040d}; !- Handle

OS:ShadowCalculation,
  {ca758bea-4416-4626-9bba-3d8795c79bd6}, !- Handle
  7,                                      !- Calculation Frequency
  15000;                                  !- Maximum Figures in Shadow Overlap Calculations

OS:SurfaceConvectionAlgorithm:Inside,
  {aaabfc36-718a-4ab0-b622-f186ebb45230}, !- Handle
  TARP;                                   !- Algorithm

OS:SurfaceConvectionAlgorithm:Outside,
  {9a0a9f6f-4bbd-4b12-a121-9492a1fcd7d6}, !- Handle
  DOE-2;                                  !- Algorithm

OS:HeatBalanceAlgorithm,
  {9d93e563-e1e0-46d7-9e39-d1c8aceb7212}, !- Handle
  ConductionTransferFunction,             !- Algorithm
  200;                                    !- Surface Temperature Upper Limit {C}

OS:ZoneAirHeatBalanceAlgorithm,
  {8520d93e-310f-4696-9bcd-36228bfdd743}, !- Handle
  AnalyticalSolution;                     !- Algorithm

OS:ZoneAirContaminantBalance,
  {eb5fc3ae-fb22-4160-8fcb-3e3b22b000d3}; !- Handle

OS:ZoneCapacitanceMultiplier:ResearchSpecial,
  {4020ce4f-5a7a-4849-8028-8305d7b751b1}, !- Handle
  ,                                       !- Temperature Capacity Multiplier
  ,                                       !- Humidity Capacity Multiplier
  ;                                       !- Carbon Dioxide Capacity Multiplier

OS:RunPeriod,
  {28df894d-6af9-4fb8-8f56-df1753344aa3}, !- Handle
  Run Period 1,                           !- Name
  1,                                      !- Begin Month
  1,                                      !- Begin Day of Month
  12,                                     !- End Month
  31,                                     !- End Day of Month
  ,                                       !- Use Weather File Holidays and Special Days
  ,                                       !- Use Weather File Daylight Saving Period
  ,                                       !- Apply Weekend Holiday Rule
  ,                                       !- Use Weather File Rain Indicators
  ,                                       !- Use Weather File Snow Indicators
  ;                                       !- Number of Times Runperiod to be Repeated

OS:Building,
  {bf305633-c5a1-4881-9edf-ca5e1a8e1274}, !- Handle
  Building 1,                             !- Name
  ,                                       !- Building Sector Type
  ,                                       !- North Axis {deg}
  ,                                       !- Nominal Floor to Floor Height {m}
  ,                                       !- Space Type Name
  ,                                       !- Default Construction Set Name
  ,                                       !- Default Schedule Set Name
  ,                                       !- Standards Number of Stories
  ,                                       !- Standards Number of Above Ground Stories
  ,                                       !- Standards Building Type
  1;                                      !- Standards Number of Living Units

OS:LifeCycleCost:Parameters,
  {231cf8a0-f0e7-4251-a99f-11f0d464e661}, !- Handle
  FEMP,                                   !- Analysis Type
  ,                                       !- Discounting Convention
  ,                                       !- Inflation Approach
  ,                                       !- Real Discount Rate
  ,                                       !- Nominal Discount Rate
  ,                                       !- Inflation
  ,                                       !- Base Date Month
  ,                                       !- Base Date Year
  ,                                       !- Service Date Month
  ,                                       !- Service Date Year
  ,                                       !- Length of Study Period in Years
  ,                                       !- Tax Rate
  ,                                       !- Depreciation Method
  Yes;                                    !- Use NIST Fuel Escalation Rates

OS:Facility,
  {3ba8e45b-b833-44eb-a723-ea6c3946dc96}; !- Handle

OS:ThermalZone,
  {0ada9a37-dcef-41fc-ac3e-7ab93ab9209f}, !- Handle
  living zone,                            !- Name
  ,                                       !- Multiplier
  ,                                       !- Ceiling Height {m}
  ,                                       !- Volume {m3}
  ,                                       !- Floor Area {m2}
  ,                                       !- Zone Inside Convection Algorithm
  ,                                       !- Zone Outside Convection Algorithm
  ,                                       !- Zone Conditioning Equipment List Name
  {00f4c1bb-ecde-4121-bcac-0ecaba03aaa5}, !- Zone Air Inlet Port List
  {205509bf-af9a-4e40-977b-46114a5ecfc3}, !- Zone Air Exhaust Port List
  {2cc2f7b1-c533-4ad0-8611-623a97cb01fe}, !- Zone Air Node Name
  ,                                       !- Zone Return Air Node Name
  ,                                       !- Primary Daylighting Control Name
  ,                                       !- Fraction of Zone Controlled by Primary Daylighting Control
  ,                                       !- Secondary Daylighting Control Name
  ,                                       !- Fraction of Zone Controlled by Secondary Daylighting Control
  ,                                       !- Illuminance Map Name
  ,                                       !- Group Rendering Name
  ,                                       !- Thermostat Name
  No;                                     !- Use Ideal Air Loads

OS:Node,
  {3c2a54a0-4803-423b-b9ed-37b46df0a085}, !- Handle
  Node 1,                                 !- Name
  {2cc2f7b1-c533-4ad0-8611-623a97cb01fe}, !- Inlet Port
  ;                                       !- Outlet Port

OS:Connection,
  {2cc2f7b1-c533-4ad0-8611-623a97cb01fe}, !- Handle
  {96c32311-e17d-454e-800c-93361dd53cb5}, !- Name
  {0ada9a37-dcef-41fc-ac3e-7ab93ab9209f}, !- Source Object
  11,                                     !- Outlet Port
  {3c2a54a0-4803-423b-b9ed-37b46df0a085}, !- Target Object
  2;                                      !- Inlet Port

OS:PortList,
  {00f4c1bb-ecde-4121-bcac-0ecaba03aaa5}, !- Handle
  Port List 1,                            !- Name
  {0ada9a37-dcef-41fc-ac3e-7ab93ab9209f}, !- HVAC Component
  {6bb57200-cc67-44a3-8bc7-0da572adb8a2}; !- Port 1

OS:PortList,
  {205509bf-af9a-4e40-977b-46114a5ecfc3}, !- Handle
  Port List 2,                            !- Name
  {0ada9a37-dcef-41fc-ac3e-7ab93ab9209f}, !- HVAC Component
  {95b35e05-0d91-41b0-9d19-995c72133bd6}; !- Port 1

OS:Sizing:Zone,
  {277299a2-1aff-4369-be9e-14ad8085eec0}, !- Handle
  {0ada9a37-dcef-41fc-ac3e-7ab93ab9209f}, !- Zone or ZoneList Name
  SupplyAirTemperature,                   !- Zone Cooling Design Supply Air Temperature Input Method
  14,                                     !- Zone Cooling Design Supply Air Temperature {C}
  11.11,                                  !- Zone Cooling Design Supply Air Temperature Difference {deltaC}
  SupplyAirTemperature,                   !- Zone Heating Design Supply Air Temperature Input Method
  40,                                     !- Zone Heating Design Supply Air Temperature {C}
  11.11,                                  !- Zone Heating Design Supply Air Temperature Difference {deltaC}
  0.0085,                                 !- Zone Cooling Design Supply Air Humidity Ratio {kg-H2O/kg-air}
  0.008,                                  !- Zone Heating Design Supply Air Humidity Ratio {kg-H2O/kg-air}
  ,                                       !- Zone Heating Sizing Factor
  ,                                       !- Zone Cooling Sizing Factor
  DesignDay,                              !- Cooling Design Air Flow Method
  ,                                       !- Cooling Design Air Flow Rate {m3/s}
  ,                                       !- Cooling Minimum Air Flow per Zone Floor Area {m3/s-m2}
  ,                                       !- Cooling Minimum Air Flow {m3/s}
  ,                                       !- Cooling Minimum Air Flow Fraction
  DesignDay,                              !- Heating Design Air Flow Method
  ,                                       !- Heating Design Air Flow Rate {m3/s}
  ,                                       !- Heating Maximum Air Flow per Zone Floor Area {m3/s-m2}
  ,                                       !- Heating Maximum Air Flow {m3/s}
  ,                                       !- Heating Maximum Air Flow Fraction
  ,                                       !- Design Zone Air Distribution Effectiveness in Cooling Mode
  ,                                       !- Design Zone Air Distribution Effectiveness in Heating Mode
  No,                                     !- Account for Dedicated Outdoor Air System
  NeutralSupplyAir,                       !- Dedicated Outdoor Air System Control Strategy
  autosize,                               !- Dedicated Outdoor Air Low Setpoint Temperature for Design {C}
  autosize;                               !- Dedicated Outdoor Air High Setpoint Temperature for Design {C}

OS:ZoneHVAC:EquipmentList,
  {813f9784-e302-44e3-ba5c-5293da8d6ef8}, !- Handle
  Zone HVAC Equipment List 1,             !- Name
  {0ada9a37-dcef-41fc-ac3e-7ab93ab9209f}, !- Thermal Zone
  {10188fd5-700c-4693-b58c-1748156a691d}, !- Zone Equipment 1
  1,                                      !- Zone Equipment Cooling Sequence 1
  1;                                      !- Zone Equipment Heating or No-Load Sequence 1

OS:Space,
  {17c56a3a-85bf-4fb1-9510-f90b98605660}, !- Handle
  living space,                           !- Name
  ,                                       !- Space Type Name
  ,                                       !- Default Construction Set Name
  ,                                       !- Default Schedule Set Name
  -0,                                     !- Direction of Relative North {deg}
  0,                                      !- X Origin {m}
  0,                                      !- Y Origin {m}
  0,                                      !- Z Origin {m}
  ,                                       !- Building Story Name
  {0ada9a37-dcef-41fc-ac3e-7ab93ab9209f}; !- Thermal Zone Name

OS:Surface,
  {9150bf20-5fca-4bc2-9254-4c0b016fb524}, !- Handle
  Surface 1,                              !- Name
  Floor,                                  !- Surface Type
  ,                                       !- Construction Name
  {17c56a3a-85bf-4fb1-9510-f90b98605660}, !- Space Name
  Surface,                                !- Outside Boundary Condition
  {01909cdf-e8bd-4d70-838f-a35ccef931a0}, !- Outside Boundary Condition Object
  NoSun,                                  !- Sun Exposure
  NoWind,                                 !- Wind Exposure
  ,                                       !- View Factor to Ground
  ,                                       !- Number of Vertices
  0, 0, 0,                                !- X,Y,Z Vertex 1 {m}
  0, 5.56486118425249, 0,                 !- X,Y,Z Vertex 2 {m}
  11.129722368505, 5.56486118425249, 0,   !- X,Y,Z Vertex 3 {m}
  11.129722368505, 0, 0;                  !- X,Y,Z Vertex 4 {m}

OS:Surface,
  {257e1bc7-90a5-40bc-8021-b3902834d223}, !- Handle
  Surface 2,                              !- Name
  Wall,                                   !- Surface Type
  ,                                       !- Construction Name
  {17c56a3a-85bf-4fb1-9510-f90b98605660}, !- Space Name
  Outdoors,                               !- Outside Boundary Condition
  ,                                       !- Outside Boundary Condition Object
  SunExposed,                             !- Sun Exposure
  WindExposed,                            !- Wind Exposure
  ,                                       !- View Factor to Ground
  ,                                       !- Number of Vertices
  0, 5.56486118425249, 2.4384,            !- X,Y,Z Vertex 1 {m}
  0, 5.56486118425249, 0,                 !- X,Y,Z Vertex 2 {m}
  0, 0, 0,                                !- X,Y,Z Vertex 3 {m}
  0, 0, 2.4384;                           !- X,Y,Z Vertex 4 {m}

OS:Surface,
  {a38a415a-04e7-42af-acbe-f658af7aac26}, !- Handle
  Surface 3,                              !- Name
  Wall,                                   !- Surface Type
  ,                                       !- Construction Name
  {17c56a3a-85bf-4fb1-9510-f90b98605660}, !- Space Name
  Outdoors,                               !- Outside Boundary Condition
  ,                                       !- Outside Boundary Condition Object
  SunExposed,                             !- Sun Exposure
  WindExposed,                            !- Wind Exposure
  ,                                       !- View Factor to Ground
  ,                                       !- Number of Vertices
  11.129722368505, 5.56486118425249, 2.4384, !- X,Y,Z Vertex 1 {m}
  11.129722368505, 5.56486118425249, 0,   !- X,Y,Z Vertex 2 {m}
  0, 5.56486118425249, 0,                 !- X,Y,Z Vertex 3 {m}
  0, 5.56486118425249, 2.4384;            !- X,Y,Z Vertex 4 {m}

OS:Surface,
  {d855b464-1ec7-46ec-a871-05d37899ee2b}, !- Handle
  Surface 4,                              !- Name
  Wall,                                   !- Surface Type
  ,                                       !- Construction Name
  {17c56a3a-85bf-4fb1-9510-f90b98605660}, !- Space Name
  Outdoors,                               !- Outside Boundary Condition
  ,                                       !- Outside Boundary Condition Object
  SunExposed,                             !- Sun Exposure
  WindExposed,                            !- Wind Exposure
  ,                                       !- View Factor to Ground
  ,                                       !- Number of Vertices
  11.129722368505, 0, 2.4384,             !- X,Y,Z Vertex 1 {m}
  11.129722368505, 0, 0,                  !- X,Y,Z Vertex 2 {m}
  11.129722368505, 5.56486118425249, 0,   !- X,Y,Z Vertex 3 {m}
  11.129722368505, 5.56486118425249, 2.4384; !- X,Y,Z Vertex 4 {m}

OS:Surface,
  {e2766291-f8d1-489c-99cc-7c1062096f9f}, !- Handle
  Surface 5,                              !- Name
  Wall,                                   !- Surface Type
  ,                                       !- Construction Name
  {17c56a3a-85bf-4fb1-9510-f90b98605660}, !- Space Name
  Outdoors,                               !- Outside Boundary Condition
  ,                                       !- Outside Boundary Condition Object
  SunExposed,                             !- Sun Exposure
  WindExposed,                            !- Wind Exposure
  ,                                       !- View Factor to Ground
  ,                                       !- Number of Vertices
  0, 0, 2.4384,                           !- X,Y,Z Vertex 1 {m}
  0, 0, 0,                                !- X,Y,Z Vertex 2 {m}
  11.129722368505, 0, 0,                  !- X,Y,Z Vertex 3 {m}
  11.129722368505, 0, 2.4384;             !- X,Y,Z Vertex 4 {m}

OS:Surface,
  {8f38f13c-f4d3-4643-a636-a92e048383b4}, !- Handle
  Surface 6,                              !- Name
  RoofCeiling,                            !- Surface Type
  ,                                       !- Construction Name
  {17c56a3a-85bf-4fb1-9510-f90b98605660}, !- Space Name
  Surface,                                !- Outside Boundary Condition
  {1bfe607f-6650-48b8-9d88-84b865245510}, !- Outside Boundary Condition Object
  NoSun,                                  !- Sun Exposure
  NoWind,                                 !- Wind Exposure
  ,                                       !- View Factor to Ground
  ,                                       !- Number of Vertices
  11.129722368505, 0, 2.4384,             !- X,Y,Z Vertex 1 {m}
  11.129722368505, 5.56486118425249, 2.4384, !- X,Y,Z Vertex 2 {m}
  0, 5.56486118425249, 2.4384,            !- X,Y,Z Vertex 3 {m}
  0, 0, 2.4384;                           !- X,Y,Z Vertex 4 {m}

OS:Space,
  {8407df0b-5cf2-49e8-83e2-fe40b70a052a}, !- Handle
  living space|story 2,                   !- Name
  ,                                       !- Space Type Name
  ,                                       !- Default Construction Set Name
  ,                                       !- Default Schedule Set Name
  -0,                                     !- Direction of Relative North {deg}
  0,                                      !- X Origin {m}
  0,                                      !- Y Origin {m}
  2.4384,                                 !- Z Origin {m}
  ,                                       !- Building Story Name
  {0ada9a37-dcef-41fc-ac3e-7ab93ab9209f}; !- Thermal Zone Name

OS:Surface,
  {1bfe607f-6650-48b8-9d88-84b865245510}, !- Handle
  Surface 7,                              !- Name
  Floor,                                  !- Surface Type
  ,                                       !- Construction Name
  {8407df0b-5cf2-49e8-83e2-fe40b70a052a}, !- Space Name
  Surface,                                !- Outside Boundary Condition
  {8f38f13c-f4d3-4643-a636-a92e048383b4}, !- Outside Boundary Condition Object
  NoSun,                                  !- Sun Exposure
  NoWind,                                 !- Wind Exposure
  ,                                       !- View Factor to Ground
  ,                                       !- Number of Vertices
  0, 0, 0,                                !- X,Y,Z Vertex 1 {m}
  0, 5.56486118425249, 0,                 !- X,Y,Z Vertex 2 {m}
  11.129722368505, 5.56486118425249, 0,   !- X,Y,Z Vertex 3 {m}
  11.129722368505, 0, 0;                  !- X,Y,Z Vertex 4 {m}

OS:Surface,
  {63fa022d-f00c-4c66-9d58-2922b456bc01}, !- Handle
  Surface 8,                              !- Name
  Wall,                                   !- Surface Type
  ,                                       !- Construction Name
  {8407df0b-5cf2-49e8-83e2-fe40b70a052a}, !- Space Name
  Outdoors,                               !- Outside Boundary Condition
  ,                                       !- Outside Boundary Condition Object
  SunExposed,                             !- Sun Exposure
  WindExposed,                            !- Wind Exposure
  ,                                       !- View Factor to Ground
  ,                                       !- Number of Vertices
  0, 5.56486118425249, 2.4384,            !- X,Y,Z Vertex 1 {m}
  0, 5.56486118425249, 0,                 !- X,Y,Z Vertex 2 {m}
  0, 0, 0,                                !- X,Y,Z Vertex 3 {m}
  0, 0, 2.4384;                           !- X,Y,Z Vertex 4 {m}

OS:Surface,
  {3fc530b3-d5cc-4181-b5cf-f794d5b442f7}, !- Handle
  Surface 9,                              !- Name
  Wall,                                   !- Surface Type
  ,                                       !- Construction Name
  {8407df0b-5cf2-49e8-83e2-fe40b70a052a}, !- Space Name
  Outdoors,                               !- Outside Boundary Condition
  ,                                       !- Outside Boundary Condition Object
  SunExposed,                             !- Sun Exposure
  WindExposed,                            !- Wind Exposure
  ,                                       !- View Factor to Ground
  ,                                       !- Number of Vertices
  11.129722368505, 5.56486118425249, 2.4384, !- X,Y,Z Vertex 1 {m}
  11.129722368505, 5.56486118425249, 0,   !- X,Y,Z Vertex 2 {m}
  0, 5.56486118425249, 0,                 !- X,Y,Z Vertex 3 {m}
  0, 5.56486118425249, 2.4384;            !- X,Y,Z Vertex 4 {m}

OS:Surface,
  {1df00da6-1575-4c48-b046-ae5636d407d2}, !- Handle
  Surface 10,                             !- Name
  Wall,                                   !- Surface Type
  ,                                       !- Construction Name
  {8407df0b-5cf2-49e8-83e2-fe40b70a052a}, !- Space Name
  Outdoors,                               !- Outside Boundary Condition
  ,                                       !- Outside Boundary Condition Object
  SunExposed,                             !- Sun Exposure
  WindExposed,                            !- Wind Exposure
  ,                                       !- View Factor to Ground
  ,                                       !- Number of Vertices
  11.129722368505, 0, 2.4384,             !- X,Y,Z Vertex 1 {m}
  11.129722368505, 0, 0,                  !- X,Y,Z Vertex 2 {m}
  11.129722368505, 5.56486118425249, 0,   !- X,Y,Z Vertex 3 {m}
  11.129722368505, 5.56486118425249, 2.4384; !- X,Y,Z Vertex 4 {m}

OS:Surface,
  {285fb253-f30f-4f76-932c-fabf885d2455}, !- Handle
  Surface 11,                             !- Name
  Wall,                                   !- Surface Type
  ,                                       !- Construction Name
  {8407df0b-5cf2-49e8-83e2-fe40b70a052a}, !- Space Name
  Outdoors,                               !- Outside Boundary Condition
  ,                                       !- Outside Boundary Condition Object
  SunExposed,                             !- Sun Exposure
  WindExposed,                            !- Wind Exposure
  ,                                       !- View Factor to Ground
  ,                                       !- Number of Vertices
  0, 0, 2.4384,                           !- X,Y,Z Vertex 1 {m}
  0, 0, 0,                                !- X,Y,Z Vertex 2 {m}
  11.129722368505, 0, 0,                  !- X,Y,Z Vertex 3 {m}
  11.129722368505, 0, 2.4384;             !- X,Y,Z Vertex 4 {m}

OS:Surface,
  {ee7bd76c-ddc2-40ab-8182-96cfcf519c99}, !- Handle
  Surface 12,                             !- Name
  RoofCeiling,                            !- Surface Type
  ,                                       !- Construction Name
  {8407df0b-5cf2-49e8-83e2-fe40b70a052a}, !- Space Name
  Surface,                                !- Outside Boundary Condition
  {c0333e18-c997-44fd-b44e-925c232d8e1a}, !- Outside Boundary Condition Object
  NoSun,                                  !- Sun Exposure
  NoWind,                                 !- Wind Exposure
  ,                                       !- View Factor to Ground
  ,                                       !- Number of Vertices
  11.129722368505, 0, 2.4384,             !- X,Y,Z Vertex 1 {m}
  11.129722368505, 5.56486118425249, 2.4384, !- X,Y,Z Vertex 2 {m}
  0, 5.56486118425249, 2.4384,            !- X,Y,Z Vertex 3 {m}
  0, 0, 2.4384;                           !- X,Y,Z Vertex 4 {m}

OS:Surface,
  {c0333e18-c997-44fd-b44e-925c232d8e1a}, !- Handle
  Surface 13,                             !- Name
  Floor,                                  !- Surface Type
  ,                                       !- Construction Name
  {d487110a-bdea-45b8-b9ea-3a9fa38e1066}, !- Space Name
  Surface,                                !- Outside Boundary Condition
  {ee7bd76c-ddc2-40ab-8182-96cfcf519c99}, !- Outside Boundary Condition Object
  NoSun,                                  !- Sun Exposure
  NoWind,                                 !- Wind Exposure
  ,                                       !- View Factor to Ground
  ,                                       !- Number of Vertices
  0, 5.56486118425249, 0,                 !- X,Y,Z Vertex 1 {m}
  11.129722368505, 5.56486118425249, 0,   !- X,Y,Z Vertex 2 {m}
  11.129722368505, 0, 0,                  !- X,Y,Z Vertex 3 {m}
  0, 0, 0;                                !- X,Y,Z Vertex 4 {m}

OS:Surface,
  {9b89d66b-fe0c-4c80-8cc1-22973196d809}, !- Handle
  Surface 14,                             !- Name
  RoofCeiling,                            !- Surface Type
  ,                                       !- Construction Name
  {d487110a-bdea-45b8-b9ea-3a9fa38e1066}, !- Space Name
  Outdoors,                               !- Outside Boundary Condition
  ,                                       !- Outside Boundary Condition Object
  SunExposed,                             !- Sun Exposure
  WindExposed,                            !- Wind Exposure
  ,                                       !- View Factor to Ground
  ,                                       !- Number of Vertices
  11.129722368505, 2.78243059212624, 1.39121529606312, !- X,Y,Z Vertex 1 {m}
  0, 2.78243059212624, 1.39121529606312,  !- X,Y,Z Vertex 2 {m}
  0, 0, 0,                                !- X,Y,Z Vertex 3 {m}
  11.129722368505, 0, 0;                  !- X,Y,Z Vertex 4 {m}

OS:Surface,
  {c619e272-1ec1-4493-a8c2-dd434c09f187}, !- Handle
  Surface 15,                             !- Name
  RoofCeiling,                            !- Surface Type
  ,                                       !- Construction Name
  {d487110a-bdea-45b8-b9ea-3a9fa38e1066}, !- Space Name
  Outdoors,                               !- Outside Boundary Condition
  ,                                       !- Outside Boundary Condition Object
  SunExposed,                             !- Sun Exposure
  WindExposed,                            !- Wind Exposure
  ,                                       !- View Factor to Ground
  ,                                       !- Number of Vertices
  0, 2.78243059212624, 1.39121529606312,  !- X,Y,Z Vertex 1 {m}
  11.129722368505, 2.78243059212624, 1.39121529606312, !- X,Y,Z Vertex 2 {m}
  11.129722368505, 5.56486118425249, 0,   !- X,Y,Z Vertex 3 {m}
  0, 5.56486118425249, 0;                 !- X,Y,Z Vertex 4 {m}

OS:Surface,
  {87533506-7892-459f-9fa7-53100955029f}, !- Handle
  Surface 16,                             !- Name
  Wall,                                   !- Surface Type
  ,                                       !- Construction Name
  {d487110a-bdea-45b8-b9ea-3a9fa38e1066}, !- Space Name
  Outdoors,                               !- Outside Boundary Condition
  ,                                       !- Outside Boundary Condition Object
  SunExposed,                             !- Sun Exposure
  WindExposed,                            !- Wind Exposure
  ,                                       !- View Factor to Ground
  ,                                       !- Number of Vertices
  0, 2.78243059212624, 1.39121529606312,  !- X,Y,Z Vertex 1 {m}
  0, 5.56486118425249, 0,                 !- X,Y,Z Vertex 2 {m}
  0, 0, 0;                                !- X,Y,Z Vertex 3 {m}

OS:Surface,
  {045a99f5-b020-4e6c-b2c5-4fd38a2ef944}, !- Handle
  Surface 17,                             !- Name
  Wall,                                   !- Surface Type
  ,                                       !- Construction Name
  {d487110a-bdea-45b8-b9ea-3a9fa38e1066}, !- Space Name