
OS:Version,
  {0b60a197-a1e3-4c95-821f-0e69a0da235a}, !- Handle
  1.3.1;                                  !- Version Identifier

OS:Construction,
  {91b9018c-42f0-4f14-98ab-9f8e8a2e2b6a}, !- Handle
  ExtInsFinWall,                          !- Name
  ,                                       !- Surface Rendering Name
  {b364fb89-1f61-4b7f-bf79-0fbc61b8a507}, !- Layer 1
  {dc701b02-a709-4fae-b4c2-486c7b9523e4}, !- Layer 2
  {b87a17c2-0ebe-4b97-9557-b02cb635fcf1}, !- Layer 3
  {a9978fb8-7d0a-41e5-be3d-b967ecade14e}; !- Layer 4

OS:Material,
  {b364fb89-1f61-4b7f-bf79-0fbc61b8a507}, !- Handle
  Exterior_Finish_Vinyl_Light,            !- Name
  Rough,                                  !- Roughness
  0.009525,                               !- Thickness {m}
  0.089435,                               !- Conductivity {W/m-K}
  177.822,                                !- Density {kg/m3}
  1046.75,                                !- Specific Heat {J/kg-K}
  0.9,                                    !- Thermal Absorptance
  0.3,                                    !- Solar Absorptance
  0.3;                                    !- Visible Absorptance

OS:Material,
  {a9978fb8-7d0a-41e5-be3d-b967ecade14e}, !- Handle
  GypsumBoard_1_2in,                      !- Name
  Rough,                                  !- Roughness
  0.0127,                                 !- Thickness {m}
  0.1602906,                              !- Conductivity {W/m-K}
  801,                                    !- Density {kg/m3}
  837.4;                                  !- Specific Heat {J/kg-K}

OS:Material,
  {dc701b02-a709-4fae-b4c2-486c7b9523e4}, !- Handle
  CMU,                                    !- Name
  Rough,                                  !- Roughness
  0.1524,                                 !- Thickness {m}
  0.649933814019447,                      !- Conductivity {W/m-K}
  1800.45576,                             !- Density {kg/m3}
  845.554345303769;                       !- Specific Heat {J/kg-K}

OS:Material,
  {b87a17c2-0ebe-4b97-9557-b02cb635fcf1}, !- Handle
  Furring,                                !- Name
  Rough,                                  !- Roughness
  0.0254,                                 !- Thickness {m}
  0.14026226645,                          !- Conductivity {W/m-K}
  110.3341455,                            !- Density {kg/m3}
  1154.52431712832;                       !- Specific Heat {J/kg-K}

