
OS:Version,
  {d20b0fbd-7dfb-4259-b3f5-67021924f715}, !- Handle
  1.3.1;                                  !- Version Identifier

OS:Construction,
  {e6f1da9d-7ad8-4858-aece-1e53433cd7f7}, !- Handle
  CSRimJoist,                             !- Name
  ,                                       !- Surface Rendering Name
  {d00e919f-f9b3-4aad-b378-a1be49a446e3}, !- Layer 1
  {73ba5a2a-4bc6-40dc-b69a-8663e0e87ff6}, !- Layer 2
  {3e4f9417-8d9e-4cc0-846b-cefa5810653a}; !- Layer 3

OS:Material,
  {d00e919f-f9b3-4aad-b378-a1be49a446e3}, !- Handle
  Exterior_Finish_Vinyl_Light,            !- Name
  Rough,                                  !- Roughness
  0.009525,                               !- Thickness {m}
  0.089435,                               !- Conductivity {W/m-K}
  177.822,                                !- Density {kg/m3}
  1046.75,                                !- Specific Heat {J/kg-K}
  0.9,                                    !- Thermal Absorptance
  0.3,                                    !- Solar Absorptance
  0.3;                                    !- Visible Absorptance

OS:Material,
  {73ba5a2a-4bc6-40dc-b69a-8663e0e87ff6}, !- Handle
  Plywood_3_2in,                          !- Name
  Rough,                                  !- Roughness
  0.0381,                                 !- Thickness {m}
  0.1154577,                              !- Conductivity {W/m-K}
  512.64,                                 !- Density {kg/m3}
  1214.23;                                !- Specific Heat {J/kg-K}

OS:Material,
  {3e4f9417-8d9e-4cc0-846b-cefa5810653a}, !- Handle
  CSJoistandCavity,                       !- Name
  Rough,                                  !- Roughness
  0.23495,                                !- Thickness {m}
  0.0960550613478366,                     !- Conductivity {W/m-K}
  108.738954,                             !- Density {kg/m3}
  1149.39401785582;                       !- Specific Heat {J/kg-K}

