!- NOTE: Auto-generated from /test/osw_files/SFD_2000sqft_2story_SL_GRG_UA_3Beds_2Baths_Denver_Furnace_CentralAC.osw

OS:Version,
  {9b48e057-2d89-42ca-b112-2fe0c5db9bba}, !- Handle
  1.14.0;                                  !- Version Identifier

OS:Building,
  {bf305633-c5a1-4881-9edf-ca5e1a8e1274}, !- Handle
  Building,                               !- Name
  ,                                       !- Building Sector Type
  ,                                       !- North Axis {deg}
  ,                                       !- Nominal Floor to Floor Height {m}
  ,                                       !- Space Type Name
  ,                                       !- Default Construction Set Name
  ,                                       !- Default Schedule Set Name
  2,                                      !- Standards Number of Stories
  2,                                      !- Standards Number of Above Ground Stories
  SingleFamilyDetached,                   !- Standards Building Type
  1;                                      !- Standards Number of Living Units

OS:YearDescription,
  {513d8dda-86cb-442a-b01c-1f7f0e0ac70e}; !- Handle

OS:SimulationControl,
  {2c487a4c-bac9-4ac5-b669-1e49d9da7c2b}, !- Handle
  ,                                       !- Do Zone Sizing Calculation
  ,                                       !- Do System Sizing Calculation
  ,                                       !- Do Plant Sizing Calculation
  No,                                     !- Run Simulation for Sizing Periods
  ;                                       !- Run Simulation for Weather File Run Periods

OS:Timestep,
  {4ebc9f1e-4707-402e-9844-67eb1ffbd522}, !- Handle
  6;                                      !- Number of Timesteps per Hour

OS:RunPeriod,
  {28df894d-6af9-4fb8-8f56-df1753344aa3}, !- Handle
  Run Period,                             !- Name
  1,                                      !- Begin Month
  1,                                      !- Begin Day of Month
  12,                                     !- End Month
  31,                                     !- End Day of Month
  ,                                       !- Use Weather File Holidays and Special Days
  ,                                       !- Use Weather File Daylight Saving Period
  ,                                       !- Apply Weekend Holiday Rule
  ,                                       !- Use Weather File Rain Indicators
  ,                                       !- Use Weather File Snow Indicators
  ;                                       !- Number of Times Runperiod to be Repeated

OS:Sizing:Parameters,
  {dde5af6f-7923-4600-a28a-7556673a0266}, !- Handle
  1.0,                                    !- Heating Sizing Factor
  1.0;                                    !- Cooling Sizing Factor

OS:ShadowCalculation,
  {ca758bea-4416-4626-9bba-3d8795c79bd6}, !- Handle
  20,                                     !- Calculation Frequency
  200;                                    !- Maximum Figures in Shadow Overlap Calculations

OS:SurfaceConvectionAlgorithm:Inside,
  {aaabfc36-718a-4ab0-b622-f186ebb45230}, !- Handle
  TARP;                                   !- Algorithm

OS:SurfaceConvectionAlgorithm:Outside,
  {9a0a9f6f-4bbd-4b12-a121-9492a1fcd7d6}, !- Handle
  DOE-2;                                  !- Algorithm

OS:HeatBalanceAlgorithm,
  {9d93e563-e1e0-46d7-9e39-d1c8aceb7212}, !- Handle
  ConductionTransferFunction,             !- Algorithm
  200;                                    !- Surface Temperature Upper Limit {C}

OS:ZoneCapacitanceMultiplier:ResearchSpecial,
  {6bfced16-b16f-47f6-8223-f7e267d75d19}, !- Handle
  ,                                       !- Temperature Capacity Multiplier
  15,                                     !- Humidity Capacity Multiplier
  ;                                       !- Carbon Dioxide Capacity Multiplier

OS:ThermalZone,
  {17ac63c6-0034-44b9-a245-dabd78c6bb7e}, !- Handle
  living zone,                            !- Name
  ,                                       !- Multiplier
  ,                                       !- Ceiling Height {m}
  ,                                       !- Volume {m3}
  ,                                       !- Floor Area {m2}
  ,                                       !- Zone Inside Convection Algorithm
  ,                                       !- Zone Outside Convection Algorithm
  ,                                       !- Zone Conditioning Equipment List Name
  {beacd90d-4d96-4f76-8442-288ba5011b5c}, !- Zone Air Inlet Port List
  {772cee60-007b-422a-98a1-b3a4da175d73}, !- Zone Air Exhaust Port List
  {7a998de1-918e-4719-b187-94c23603e517}, !- Zone Air Node Name
  {6b73ceaf-be05-4e7c-b180-7e3548847408}, !- Zone Return Air Node Name
  ,                                       !- Primary Daylighting Control Name
  ,                                       !- Fraction of Zone Controlled by Primary Daylighting Control
  ,                                       !- Secondary Daylighting Control Name
  ,                                       !- Fraction of Zone Controlled by Secondary Daylighting Control
  ,                                       !- Illuminance Map Name
  ,                                       !- Group Rendering Name
  {8d8acfef-7968-4f0c-add9-498f6c36e4db}, !- Thermostat Name
  No;                                     !- Use Ideal Air Loads

OS:Node,
  {f940da21-b78d-4ec4-934f-7292a6df4315}, !- Handle
  Node 1,                                 !- Name
  {7a998de1-918e-4719-b187-94c23603e517}, !- Inlet Port
  ;                                       !- Outlet Port

OS:Connection,
  {7a998de1-918e-4719-b187-94c23603e517}, !- Handle
  {06cd449f-d02c-4326-adc0-130aaeb7cc0b}, !- Name
  {17ac63c6-0034-44b9-a245-dabd78c6bb7e}, !- Source Object
  11,                                     !- Outlet Port
  {f940da21-b78d-4ec4-934f-7292a6df4315}, !- Target Object
  2;                                      !- Inlet Port

OS:PortList,
  {beacd90d-4d96-4f76-8442-288ba5011b5c}, !- Handle
  Port List 1,                            !- Name
  {17ac63c6-0034-44b9-a245-dabd78c6bb7e}, !- HVAC Component
  {6710dcc0-f607-4ffc-91be-4ab0c186f3a8}; !- Port 1

OS:PortList,
  {772cee60-007b-422a-98a1-b3a4da175d73}, !- Handle
  Port List 2,                            !- Name
  {17ac63c6-0034-44b9-a245-dabd78c6bb7e}; !- HVAC Component

OS:Sizing:Zone,
  {f56da02b-d2a5-49f4-8b5a-0ba743661835}, !- Handle
  {17ac63c6-0034-44b9-a245-dabd78c6bb7e}, !- Zone or ZoneList Name
  SupplyAirTemperature,                   !- Zone Cooling Design Supply Air Temperature Input Method
  14,                                     !- Zone Cooling Design Supply Air Temperature {C}
  11.11,                                  !- Zone Cooling Design Supply Air Temperature Difference {deltaC}
  SupplyAirTemperature,                   !- Zone Heating Design Supply Air Temperature Input Method
  40,                                     !- Zone Heating Design Supply Air Temperature {C}
  11.11,                                  !- Zone Heating Design Supply Air Temperature Difference {deltaC}
  0.0085,                                 !- Zone Cooling Design Supply Air Humidity Ratio {kg-H2O/kg-air}
  0.008,                                  !- Zone Heating Design Supply Air Humidity Ratio {kg-H2O/kg-air}
  ,                                       !- Zone Heating Sizing Factor
  ,                                       !- Zone Cooling Sizing Factor
  DesignDay,                              !- Cooling Design Air Flow Method
  ,                                       !- Cooling Design Air Flow Rate {m3/s}
  ,                                       !- Cooling Minimum Air Flow per Zone Floor Area {m3/s-m2}
  ,                                       !- Cooling Minimum Air Flow {m3/s}
  ,                                       !- Cooling Minimum Air Flow Fraction
  DesignDay,                              !- Heating Design Air Flow Method
  ,                                       !- Heating Design Air Flow Rate {m3/s}
  ,                                       !- Heating Maximum Air Flow per Zone Floor Area {m3/s-m2}
  ,                                       !- Heating Maximum Air Flow {m3/s}
  ,                                       !- Heating Maximum Air Flow Fraction
  ,                                       !- Design Zone Air Distribution Effectiveness in Cooling Mode
  ,                                       !- Design Zone Air Distribution Effectiveness in Heating Mode
  No,                                     !- Account for Dedicated Outdoor Air System
  NeutralSupplyAir,                       !- Dedicated Outdoor Air System Control Strategy
  autosize,                               !- Dedicated Outdoor Air Low Setpoint Temperature for Design {C}
  autosize;                               !- Dedicated Outdoor Air High Setpoint Temperature for Design {C}

OS:ZoneHVAC:EquipmentList,
  {01962307-3b96-454d-b69a-3cfe6b271ed2}, !- Handle
  Zone HVAC Equipment List 1,             !- Name
  {17ac63c6-0034-44b9-a245-dabd78c6bb7e}, !- Thermal Zone
  {60c0bd8b-0df6-4b21-a4f7-38c3be60e64a}, !- Zone Equipment 1
  1,                                      !- Zone Equipment Cooling Sequence 1
  1;                                      !- Zone Equipment Heating or No-Load Sequence 1

OS:ThermalZone,
  {75cac183-ab3e-4bec-8b29-efeff97c0fa4}, !- Handle
  garage zone,                            !- Name
  ,                                       !- Multiplier
  ,                                       !- Ceiling Height {m}
  ,                                       !- Volume {m3}
  ,                                       !- Floor Area {m2}
  ,                                       !- Zone Inside Convection Algorithm
  ,                                       !- Zone Outside Convection Algorithm
  ,                                       !- Zone Conditioning Equipment List Name
  {c285d54f-f561-4ef8-8b6b-9ba2b85d6421}, !- Zone Air Inlet Port List
  {29c5f9b6-431e-475b-b876-51954c5f75b5}, !- Zone Air Exhaust Port List
  {afdc5512-8690-4e4d-bde6-89cc787fa34c}, !- Zone Air Node Name
  ,                                       !- Zone Return Air Node Name
  ,                                       !- Primary Daylighting Control Name
  ,                                       !- Fraction of Zone Controlled by Primary Daylighting Control
  ,                                       !- Secondary Daylighting Control Name
  ,                                       !- Fraction of Zone Controlled by Secondary Daylighting Control
  ,                                       !- Illuminance Map Name
  ,                                       !- Group Rendering Name
  ,                                       !- Thermostat Name
  No;                                     !- Use Ideal Air Loads

OS:Node,
  {056c6d68-a232-415a-b510-e49867c1d4ab}, !- Handle
  Node 2,                                 !- Name
  {afdc5512-8690-4e4d-bde6-89cc787fa34c}, !- Inlet Port
  ;                                       !- Outlet Port

OS:Connection,
  {afdc5512-8690-4e4d-bde6-89cc787fa34c}, !- Handle
  {f06078ac-9cc8-4775-b12a-f10c8e494adb}, !- Name
  {75cac183-ab3e-4bec-8b29-efeff97c0fa4}, !- Source Object
  11,                                     !- Outlet Port
  {056c6d68-a232-415a-b510-e49867c1d4ab}, !- Target Object
  2;                                      !- Inlet Port

OS:PortList,
  {c285d54f-f561-4ef8-8b6b-9ba2b85d6421}, !- Handle
  Port List 3,                            !- Name
  {75cac183-ab3e-4bec-8b29-efeff97c0fa4}; !- HVAC Component

OS:PortList,
  {29c5f9b6-431e-475b-b876-51954c5f75b5}, !- Handle
  Port List 4,                            !- Name
  {75cac183-ab3e-4bec-8b29-efeff97c0fa4}; !- HVAC Component

OS:Sizing:Zone,
  {c08c8d23-78ea-4571-9bc3-5835e64f0b14}, !- Handle
  {75cac183-ab3e-4bec-8b29-efeff97c0fa4}, !- Zone or ZoneList Name
  SupplyAirTemperature,                   !- Zone Cooling Design Supply Air Temperature Input Method
  14,                                     !- Zone Cooling Design Supply Air Temperature {C}
  11.11,                                  !- Zone Cooling Design Supply Air Temperature Difference {deltaC}
  SupplyAirTemperature,                   !- Zone Heating Design Supply Air Temperature Input Method
  40,                                     !- Zone Heating Design Supply Air Temperature {C}
  11.11,                                  !- Zone Heating Design Supply Air Temperature Difference {deltaC}
  0.0085,                                 !- Zone Cooling Design Supply Air Humidity Ratio {kg-H2O/kg-air}
  0.008,                                  !- Zone Heating Design Supply Air Humidity Ratio {kg-H2O/kg-air}
  ,                                       !- Zone Heating Sizing Factor
  ,                                       !- Zone Cooling Sizing Factor
  DesignDay,                              !- Cooling Design Air Flow Method
  ,                                       !- Cooling Design Air Flow Rate {m3/s}
  ,                                       !- Cooling Minimum Air Flow per Zone Floor Area {m3/s-m2}
  ,                                       !- Cooling Minimum Air Flow {m3/s}
  ,                                       !- Cooling Minimum Air Flow Fraction
  DesignDay,                              !- Heating Design Air Flow Method
  ,                                       !- Heating Design Air Flow Rate {m3/s}
  ,                                       !- Heating Maximum Air Flow per Zone Floor Area {m3/s-m2}
  ,                                       !- Heating Maximum Air Flow {m3/s}
  ,                                       !- Heating Maximum Air Flow Fraction
  ,                                       !- Design Zone Air Distribution Effectiveness in Cooling Mode
  ,                                       !- Design Zone Air Distribution Effectiveness in Heating Mode
  No,                                     !- Account for Dedicated Outdoor Air System
  NeutralSupplyAir,                       !- Dedicated Outdoor Air System Control Strategy
  autosize,                               !- Dedicated Outdoor Air Low Setpoint Temperature for Design {C}
  autosize;                               !- Dedicated Outdoor Air High Setpoint Temperature for Design {C}

OS:ZoneHVAC:EquipmentList,
  {8528ce98-17aa-423c-8ffb-3e94468de345}, !- Handle
  Zone HVAC Equipment List 2,             !- Name
  {75cac183-ab3e-4bec-8b29-efeff97c0fa4}; !- Thermal Zone

OS:Space,
  {7c732428-e0a0-4867-a930-b8715f70c5a7}, !- Handle
  garage space,                           !- Name
  ,                                       !- Space Type Name
  ,                                       !- Default Construction Set Name
  ,                                       !- Default Schedule Set Name
  -0,                                     !- Direction of Relative North {deg}
  0,                                      !- X Origin {m}
  0,                                      !- Y Origin {m}
  0,                                      !- Z Origin {m}
  ,                                       !- Building Story Name
  {75cac183-ab3e-4bec-8b29-efeff97c0fa4}, !- Thermal Zone Name
  ,                                       !- Part of Total Floor Area
  ,                                       !- Design Specification Outdoor Air Object Name
  {5046a931-3234-4feb-a425-933ce041a17a}; !- Building Unit Name

OS:Surface,
  {d7fedc64-968a-49bf-8338-7e21e2eae163}, !- Handle
  Surface 1,                              !- Name
  Floor,                                  !- Surface Type
  ,                                       !- Construction Name
  {7c732428-e0a0-4867-a930-b8715f70c5a7}, !- Space Name
  Ground,                                 !- Outside Boundary Condition
  ,                                       !- Outside Boundary Condition Object
  NoSun,                                  !- Sun Exposure
  NoWind,                                 !- Wind Exposure
  ,                                       !- View Factor to Ground
  ,                                       !- Number of Vertices
  10.7681689431101, 0, 0,                 !- X,Y,Z Vertex 1 {m}
  10.7681689431101, 6.096, 0,             !- X,Y,Z Vertex 2 {m}
  14.4257689431101, 6.096, 0,             !- X,Y,Z Vertex 3 {m}
  14.4257689431101, 0, 0;                 !- X,Y,Z Vertex 4 {m}

OS:Surface,
  {de996311-321b-492a-98cd-ebf94f38f789}, !- Handle
  Surface 2,                              !- Name
  Wall,                                   !- Surface Type
  ,                                       !- Construction Name
  {7c732428-e0a0-4867-a930-b8715f70c5a7}, !- Space Name
  Surface,                                !- Outside Boundary Condition
  {85220bad-edde-44ee-947d-fcdcb960c8b1}, !- Outside Boundary Condition Object
  NoSun,                                  !- Sun Exposure
  NoWind,                                 !- Wind Exposure
  ,                                       !- View Factor to Ground
  ,                                       !- Number of Vertices
  10.7681689431101, 6.096, 2.4384,        !- X,Y,Z Vertex 1 {m}
  10.7681689431101, 6.096, 0,             !- X,Y,Z Vertex 2 {m}
  10.7681689431101, 0, 0,                 !- X,Y,Z Vertex 3 {m}
  10.7681689431101, 0, 2.4384;            !- X,Y,Z Vertex 4 {m}

OS:Surface,
  {9762e126-8c4d-4b83-b15e-38507fb6ad52}, !- Handle
  Surface 3,                              !- Name
  Wall,                                   !- Surface Type
  ,                                       !- Construction Name
  {7c732428-e0a0-4867-a930-b8715f70c5a7}, !- Space Name
  Surface,                                !- Outside Boundary Condition
  {c188122f-cd21-46a5-afc3-9fd9df2e309f}, !- Outside Boundary Condition Object
  NoSun,                                  !- Sun Exposure
  NoWind,                                 !- Wind Exposure
  ,                                       !- View Factor to Ground
  ,                                       !- Number of Vertices
  14.4257689431101, 6.096, 2.4384,        !- X,Y,Z Vertex 1 {m}
  14.4257689431101, 6.096, 0,             !- X,Y,Z Vertex 2 {m}
  10.7681689431101, 6.096, 0,             !- X,Y,Z Vertex 3 {m}
  10.7681689431101, 6.096, 2.4384;        !- X,Y,Z Vertex 4 {m}

OS:Surface,
  {667dc04d-0040-41ed-b5ca-839eaf615c18}, !- Handle
  Surface 4,                              !- Name
  Wall,                                   !- Surface Type
  ,                                       !- Construction Name
  {7c732428-e0a0-4867-a930-b8715f70c5a7}, !- Space Name
  Outdoors,                               !- Outside Boundary Condition
  ,                                       !- Outside Boundary Condition Object
  SunExposed,                             !- Sun Exposure
  WindExposed,                            !- Wind Exposure
  ,                                       !- View Factor to Ground
  ,                                       !- Number of Vertices
  14.4257689431101, 0, 2.4384,            !- X,Y,Z Vertex 1 {m}
  14.4257689431101, 0, 0,                 !- X,Y,Z Vertex 2 {m}
  14.4257689431101, 6.096, 0,             !- X,Y,Z Vertex 3 {m}
  14.4257689431101, 6.096, 2.4384;        !- X,Y,Z Vertex 4 {m}

OS:Surface,
  {bc5d76f4-bf5e-49f1-90ca-9e3a4d4302d6}, !- Handle
  Surface 5,                              !- Name
  Wall,                                   !- Surface Type
  ,                                       !- Construction Name
  {7c732428-e0a0-4867-a930-b8715f70c5a7}, !- Space Name
  Outdoors,                               !- Outside Boundary Condition
  ,                                       !- Outside Boundary Condition Object
  SunExposed,                             !- Sun Exposure
  WindExposed,                            !- Wind Exposure
  ,                                       !- View Factor to Ground
  ,                                       !- Number of Vertices
  10.7681689431101, 0, 2.4384,            !- X,Y,Z Vertex 1 {m}
  10.7681689431101, 0, 0,                 !- X,Y,Z Vertex 2 {m}
  14.4257689431101, 0, 0,                 !- X,Y,Z Vertex 3 {m}
  14.4257689431101, 0, 2.4384;            !- X,Y,Z Vertex 4 {m}

OS:Surface,
  {a7e9fdc0-027f-402a-ad7a-0bc289710aef}, !- Handle
  Surface 6,                              !- Name
  RoofCeiling,                            !- Surface Type
  ,                                       !- Construction Name
  {7c732428-e0a0-4867-a930-b8715f70c5a7}, !- Space Name
  Surface,                                !- Outside Boundary Condition
  {5f6745d2-9b2a-43a0-9a5e-ff61f4a36083}, !- Outside Boundary Condition Object
  NoSun,                                  !- Sun Exposure
  NoWind,                                 !- Wind Exposure
  ,                                       !- View Factor to Ground
  ,                                       !- Number of Vertices
  14.4257689431101, 0, 2.4384,            !- X,Y,Z Vertex 1 {m}
  14.4257689431101, 6.096, 2.4384,        !- X,Y,Z Vertex 2 {m}
  10.7681689431101, 6.096, 2.4384,        !- X,Y,Z Vertex 3 {m}
  10.7681689431101, 0, 2.4384;            !- X,Y,Z Vertex 4 {m}

OS:Space,
  {44326162-77a9-4550-b479-2786c406a358}, !- Handle
  living space,                           !- Name
  ,                                       !- Space Type Name
  ,                                       !- Default Construction Set Name
  ,                                       !- Default Schedule Set Name
  -0,                                     !- Direction of Relative North {deg}
  0,                                      !- X Origin {m}
  0,                                      !- Y Origin {m}
  0,                                      !- Z Origin {m}
  ,                                       !- Building Story Name
  {17ac63c6-0034-44b9-a245-dabd78c6bb7e}, !- Thermal Zone Name
  ,                                       !- Part of Total Floor Area
  ,                                       !- Design Specification Outdoor Air Object Name
  {5046a931-3234-4feb-a425-933ce041a17a}; !- Building Unit Name

OS:Surface,
  {456ed132-3fd8-4d7c-8b2e-9d2f86d95dbf}, !- Handle
  Surface 7,                              !- Name
  Floor,                                  !- Surface Type
  ,                                       !- Construction Name
  {44326162-77a9-4550-b479-2786c406a358}, !- Space Name
  Ground,                                 !- Outside Boundary Condition
  ,                                       !- Outside Boundary Condition Object
  NoSun,                                  !- Sun Exposure
  NoWind,                                 !- Wind Exposure
  ,                                       !- View Factor to Ground
  ,                                       !- Number of Vertices
  0, 0, 0,                                !- X,Y,Z Vertex 1 {m}
  0, 7.21288447155505, 0,                 !- X,Y,Z Vertex 2 {m}
  14.4257689431101, 7.21288447155505, 0,  !- X,Y,Z Vertex 3 {m}
  14.4257689431101, 6.096, 0,             !- X,Y,Z Vertex 4 {m}
  10.7681689431101, 6.096, 0,             !- X,Y,Z Vertex 5 {m}
  10.7681689431101, 0, 0;                 !- X,Y,Z Vertex 6 {m}

OS:Surface,
  {6683377d-c169-4637-bbe0-60f79bfe56b9}, !- Handle
  Surface 8,                              !- Name
  Wall,                                   !- Surface Type
  ,                                       !- Construction Name
  {44326162-77a9-4550-b479-2786c406a358}, !- Space Name
  Outdoors,                               !- Outside Boundary Condition
  ,                                       !- Outside Boundary Condition Object
  SunExposed,                             !- Sun Exposure
  WindExposed,                            !- Wind Exposure
  ,                                       !- View Factor to Ground
  ,                                       !- Number of Vertices
  0, 7.21288447155505, 2.4384,            !- X,Y,Z Vertex 1 {m}
  0, 7.21288447155505, 0,                 !- X,Y,Z Vertex 2 {m}
  0, 0, 0,                                !- X,Y,Z Vertex 3 {m}
  0, 0, 2.4384;                           !- X,Y,Z Vertex 4 {m}

OS:Surface,
  {aed84351-7b3b-49cb-9580-6fafa54cfc75}, !- Handle
  Surface 9,                              !- Name
  Wall,                                   !- Surface Type
  ,                                       !- Construction Name
  {44326162-77a9-4550-b479-2786c406a358}, !- Space Name
  Outdoors,                               !- Outside Boundary Condition
  ,                                       !- Outside Boundary Condition Object
  SunExposed,                             !- Sun Exposure
  WindExposed,                            !- Wind Exposure
  ,                                       !- View Factor to Ground
  ,                                       !- Number of Vertices
  14.4257689431101, 7.21288447155505, 2.4384, !- X,Y,Z Vertex 1 {m}
  14.4257689431101, 7.21288447155505, 0,  !- X,Y,Z Vertex 2 {m}
  0, 7.21288447155505, 0,                 !- X,Y,Z Vertex 3 {m}
  0, 7.21288447155505, 2.4384;            !- X,Y,Z Vertex 4 {m}

OS:Surface,
  {53ca7fcb-3589-41f0-b51e-f943fc0dad4c}, !- Handle
  Surface 10,                             !- Name
  Wall,                                   !- Surface Type
  ,                                       !- Construction Name
  {44326162-77a9-4550-b479-2786c406a358}, !- Space Name
  Outdoors,                               !- Outside Boundary Condition
  ,                                       !- Outside Boundary Condition Object
  SunExposed,                             !- Sun Exposure
  WindExposed,                            !- Wind Exposure
  ,                                       !- View Factor to Ground
  ,                                       !- Number of Vertices
  14.4257689431101, 6.096, 2.4384,        !- X,Y,Z Vertex 1 {m}
  14.4257689431101, 6.096, 0,             !- X,Y,Z Vertex 2 {m}
  14.4257689431101, 7.21288447155505, 0,  !- X,Y,Z Vertex 3 {m}
  14.4257689431101, 7.21288447155505, 2.4384; !- X,Y,Z Vertex 4 {m}

OS:Surface,
  {c188122f-cd21-46a5-afc3-9fd9df2e309f}, !- Handle
  Surface 11,                             !- Name
  Wall,                                   !- Surface Type
  ,                                       !- Construction Name
  {44326162-77a9-4550-b479-2786c406a358}, !- Space Name
  Surface,                                !- Outside Boundary Condition
  {9762e126-8c4d-4b83-b15e-38507fb6ad52}, !- Outside Boundary Condition Object
  NoSun,                                  !- Sun Exposure
  NoWind,                                 !- Wind Exposure
  ,                                       !- View Factor to Ground
  ,                                       !- Number of Vertices
  10.7681689431101, 6.096, 2.4384,        !- X,Y,Z Vertex 1 {m}
  10.7681689431101, 6.096, 0,             !- X,Y,Z Vertex 2 {m}
  14.4257689431101, 6.096, 0,             !- X,Y,Z Vertex 3 {m}
  14.4257689431101, 6.096, 2.4384;        !- X,Y,Z Vertex 4 {m}

OS:Surface,
  {85220bad-edde-44ee-947d-fcdcb960c8b1}, !- Handle
  Surface 12,                             !- Name
  Wall,                                   !- Surface Type
  ,                                       !- Construction Name
  {44326162-77a9-4550-b479-2786c406a358}, !- Space Name
  Surface,                                !- Outside Boundary Condition
  {de996311-321b-492a-98cd-ebf94f38f789}, !- Outside Boundary Condition Object
  NoSun,                                  !- Sun Exposure
  NoWind,                                 !- Wind Exposure
  ,                                       !- View Factor to Ground
  ,                                       !- Number of Vertices
  10.7681689431101, 0, 2.4384,            !- X,Y,Z Vertex 1 {m}
  10.7681689431101, 0, 0,                 !- X,Y,Z Vertex 2 {m}
  10.7681689431101, 6.096, 0,             !- X,Y,Z Vertex 3 {m}
  10.7681689431101, 6.096, 2.4384;        !- X,Y,Z Vertex 4 {m}

OS:Surface,
  {fc7ff055-e492-4316-a394-17b98d118628}, !- Handle
  Surface 13,                             !- Name
  Wall,                                   !- Surface Type
  ,                                       !- Construction Name
  {44326162-77a9-4550-b479-2786c406a358}, !- Space Name
  Outdoors,                               !- Outside Boundary Condition
  ,                                       !- Outside Boundary Condition Object
  SunExposed,                             !- Sun Exposure
  WindExposed,                            !- Wind Exposure
  ,                                       !- View Factor to Ground
  ,                                       !- Number of Vertices
  0, 0, 2.4384,                           !- X,Y,Z Vertex 1 {m}
  0, 0, 0,                                !- X,Y,Z Vertex 2 {m}
  10.7681689431101, 0, 0,                 !- X,Y,Z Vertex 3 {m}
  10.7681689431101, 0, 2.4384;            !- X,Y,Z Vertex 4 {m}

OS:Surface,
  {b89fe8f5-1d08-4751-a285-934be3ead4e6}, !- Handle
  Surface 14,                             !- Name
  RoofCeiling,                            !- Surface Type
  ,                                       !- Construction Name
  {44326162-77a9-4550-b479-2786c406a358}, !- Space Name
  Surface,                                !- Outside Boundary Condition
  {6e4220b7-645f-4032-b3f2-3a54be29e682}, !- Outside Boundary Condition Object
  NoSun,                                  !- Sun Exposure
  NoWind,                                 !- Wind Exposure
  ,                                       !- View Factor to Ground
  ,                                       !- Number of Vertices
  10.7681689431101, 0, 2.4384,            !- X,Y,Z Vertex 1 {m}
  10.7681689431101, 6.096, 2.4384,        !- X,Y,Z Vertex 2 {m}
  14.4257689431101, 6.096, 2.4384,        !- X,Y,Z Vertex 3 {m}
  14.4257689431101, 7.21288447155505, 2.4384, !- X,Y,Z Vertex 4 {m}
  0, 7.21288447155505, 2.4384,            !- X,Y,Z Vertex 5 {m}
  0, 0, 2.4384;                           !- X,Y,Z Vertex 6 {m}

OS:Space,
  {42b4bce5-1701-4042-acf4-af34797a5273}, !- Handle
  living space|story 2,                   !- Name
  ,                                       !- Space Type Name