
OS:Version,
  {343a59f8-c162-4b44-bba5-68a767fdd776}, !- Handle
  1.3.1;                                  !- Version Identifier

OS:Construction,
  {fed6304b-8066-45d4-bef2-5d7f7ff98942}, !- Handle
  ExtInsFinWall,                          !- Name
  ,                                       !- Surface Rendering Name
  {666f8bd9-77a9-4fd8-bea8-a66598e22e1e}, !- Layer 1
  {0906d1a7-f6d3-40ed-8622-61e088083ac3}, !- Layer 2
  {01eec2bb-3f58-4906-9894-5e28415a13f1}, !- Layer 3
  {c77b3e71-2a42-44f7-9880-aa58a896c580}; !- Layer 4

OS:Material,
  {666f8bd9-77a9-4fd8-bea8-a66598e22e1e}, !- Handle
  Exterior_Finish_Vinyl_Light,            !- Name
  Rough,                                  !- Roughness
  0.009525,                               !- Thickness {m}
  0.089435,                               !- Conductivity {W/m-K}
  177.822,                                !- Density {kg/m3}
  1046.75,                                !- Specific Heat {J/kg-K}
  0.9,                                    !- Thermal Absorptance
  0.3,                                    !- Solar Absorptance
  0.3;                                    !- Visible Absorptance

OS:Material,
  {c77b3e71-2a42-44f7-9880-aa58a896c580}, !- Handle
  GypsumBoard_1_2in,                      !- Name
  Rough,                                  !- Roughness
  0.0127,                                 !- Thickness {m}
  0.1602906,                              !- Conductivity {W/m-K}
  801,                                    !- Density {kg/m3}
  837.4;                                  !- Specific Heat {J/kg-K}

OS:Material,
  {0906d1a7-f6d3-40ed-8622-61e088083ac3}, !- Handle
  CMU,                                    !- Name
  Rough,                                  !- Roughness
  0.1524,                                 !- Thickness {m}
  0.22061224739539,                       !- Conductivity {W/m-K}
  1001.12184,                             !- Density {kg/m3}
  852.065086091019;                       !- Specific Heat {J/kg-K}

OS:Material,
  {01eec2bb-3f58-4906-9894-5e28415a13f1}, !- Handle
  Furring,                                !- Name
  Rough,                                  !- Roughness
  0.0508,                                 !- Thickness {m}
  0.0367027872833333,                     !- Conductivity {W/m-K}
  110.3341455,                            !- Density {kg/m3}
  1154.52431712832;                       !- Specific Heat {J/kg-K}

