
OS:Version,
  {1e8facc6-15af-44ea-bf84-de9e9bb7cdca}, !- Handle
  1.3.1;                                  !- Version Identifier

OS:Construction,
  {149cc4e5-abd7-417d-8b7d-f8a0140ed0d6}, !- Handle
  ExtInsFinWall,                          !- Name
  ,                                       !- Surface Rendering Name
  {72fd0e17-553f-475c-b5b5-853af5bda3ca}, !- Layer 1
  {ed57fe56-bcbe-4999-afbd-f2180d091b42}, !- Layer 2
  {97a5c129-4a7f-4ee7-acb8-3b28d236918e}, !- Layer 3
  {f14334b5-3706-48c3-afe4-9f558c9fab43}; !- Layer 4

OS:Material,
  {72fd0e17-553f-475c-b5b5-853af5bda3ca}, !- Handle
  Exterior_Finish_Vinyl_Light,            !- Name
  Rough,                                  !- Roughness
  0.009525,                               !- Thickness {m}
  0.089435,                               !- Conductivity {W/m-K}
  177.822,                                !- Density {kg/m3}
  1046.75,                                !- Specific Heat {J/kg-K}
  0.9,                                    !- Thermal Absorptance
  0.3,                                    !- Solar Absorptance
  0.3;                                    !- Visible Absorptance

OS:Material,
  {f14334b5-3706-48c3-afe4-9f558c9fab43}, !- Handle
  GypsumBoard_1_2in,                      !- Name
  Rough,                                  !- Roughness
  0.0127,                                 !- Thickness {m}
  0.1602906,                              !- Conductivity {W/m-K}
  801,                                    !- Density {kg/m3}
  837.4;                                  !- Specific Heat {J/kg-K}

OS:Material,
  {ed57fe56-bcbe-4999-afbd-f2180d091b42}, !- Handle
  CMU,                                    !- Name
  Rough,                                  !- Roughness
  0.3048,                                 !- Thickness {m}
  0.303006139822312,                      !- Conductivity {W/m-K}
  764.28216,                              !- Density {kg/m3}
  856.609578267795;                       !- Specific Heat {J/kg-K}

OS:Material,
  {97a5c129-4a7f-4ee7-acb8-3b28d236918e}, !- Handle
  Furring,                                !- Name
  Rough,                                  !- Roughness
  0.0508,                                 !- Thickness {m}
  0.0351095645269231,                     !- Conductivity {W/m-K}
  110.3341455,                            !- Density {kg/m3}
  1154.52431712832;                       !- Specific Heat {J/kg-K}

