
OS:Version,
  {4244d570-daff-4243-a929-1f79d0f46878}, !- Handle
  1.3.1;                                  !- Version Identifier

OS:Construction,
  {4737ff65-b86d-4baa-afee-50b82f0dfc87}, !- Handle
  Slab,                                   !- Name
  ,                                       !- Surface Rendering Name
  {fd8afd09-15aa-48aa-b944-7ab3fcffe4a1}, !- Layer 1
  {40c0f75c-e11b-4a9d-ba09-8ef7c23b6dca}, !- Layer 2
  {3a25007d-3d4a-48a4-81de-5fdf207b0774}, !- Layer 3
  {404d2383-8eee-441c-b09d-1c38bc9c7580}; !- Layer 4

OS:Material,
  {40c0f75c-e11b-4a9d-ba09-8ef7c23b6dca}, !- Handle
  Soil_12in,                              !- Name
  Rough,                                  !- Roughness
  0.3048,                                 !- Thickness {m}
  1.731,                                  !- Conductivity {W/m-K}
  1842.3,                                 !- Density {kg/m3}
  418.7;                                  !- Specific Heat {J/kg-K}

OS:Material,
  {3a25007d-3d4a-48a4-81de-5fdf207b0774}, !- Handle
  SlabMass,                               !- Name
  Rough,                                  !- Roughness
  0.1016,                                 !- Thickness {m}
  1.312675,                               !- Conductivity {W/m-K}
  2242.79999999999,                       !- Density {kg/m3}
  837.4;                                  !- Specific Heat {J/kg-K}

OS:Material,
  {404d2383-8eee-441c-b09d-1c38bc9c7580}, !- Handle
  SlabCarpetBareEquivalentMaterial,       !- Name
  Rough,                                  !- Roughness
  0.0254,                                 !- Thickness {m}
  0.0866804263311929,                     !- Conductivity {W/m-K}
  40.05,                                  !- Density {kg/m3}
  1214.23;                                !- Specific Heat {J/kg-K}

OS:Material,
  {fd8afd09-15aa-48aa-b944-7ab3fcffe4a1}, !- Handle
  Mat-Fic-Slab,                           !- Name
  Rough,                                  !- Roughness
  0.0254,                                 !- Thickness {m}
  0.0135459447575008,                     !- Conductivity {W/m-K}
  40.05,                                  !- Density {kg/m3}
  1214.23;                                !- Specific Heat {J/kg-K}

