
OS:Version,
  {61b1b148-00d8-4217-bee5-6517f0c80008}, !- Handle
  1.3.1;                                  !- Version Identifier

OS:Construction,
  {c463b860-32de-48db-9e28-afebf5192dc6}, !- Handle
  ExtInsFinWall,                          !- Name
  ,                                       !- Surface Rendering Name
  {16142e48-c54e-434a-a755-5a0eb4ad95cc}, !- Layer 1
  {b34685c0-1c25-4697-936d-b2a451362440}, !- Layer 2
  {1fd3a178-fac9-449b-8bc6-a4610d3312e4}, !- Layer 3
  {a973fb5f-a14c-4c4f-9ab6-d1346642581f}; !- Layer 4

OS:Material,
  {16142e48-c54e-434a-a755-5a0eb4ad95cc}, !- Handle
  Exterior_Finish_Vinyl_Light,            !- Name
  Rough,                                  !- Roughness
  0.009525,                               !- Thickness {m}
  0.089435,                               !- Conductivity {W/m-K}
  177.822,                                !- Density {kg/m3}
  1046.75,                                !- Specific Heat {J/kg-K}
  0.9,                                    !- Thermal Absorptance
  0.3,                                    !- Solar Absorptance
  0.3;                                    !- Visible Absorptance

OS:Material,
  {b34685c0-1c25-4697-936d-b2a451362440}, !- Handle
  Plywood_1_2in,                          !- Name
  Rough,                                  !- Roughness
  0.0127,                                 !- Thickness {m}
  0.1154577,                              !- Conductivity {W/m-K}
  512.64,                                 !- Density {kg/m3}
  1214.23;                                !- Specific Heat {J/kg-K}

OS:Material,
  {a973fb5f-a14c-4c4f-9ab6-d1346642581f}, !- Handle
  GypsumBoard_1_2in,                      !- Name
  Rough,                                  !- Roughness
  0.0127,                                 !- Thickness {m}
  0.1602906,                              !- Conductivity {W/m-K}
  801,                                    !- Density {kg/m3}
  837.4;                                  !- Specific Heat {J/kg-K}

OS:Material,
  {1fd3a178-fac9-449b-8bc6-a4610d3312e4}, !- Handle
  StudandCavity,                          !- Name
  Rough,                                  !- Roughness
  0.1397,                                 !- Thickness {m}
  0.0556950698320778,                     !- Conductivity {W/m-K}
  148.39326,                              !- Density {kg/m3}
  1174.03696966425;                       !- Specific Heat {J/kg-K}

