
OS:Version,
  {b3a571f5-72ee-415a-90a0-312630e3508e}, !- Handle
  1.3.1;                                  !- Version Identifier

OS:Construction,
  {53dec7a0-b274-455d-b453-17fbf17c6e5b}, !- Handle
  ExtInsFinWall,                          !- Name
  ,                                       !- Surface Rendering Name
  {4672f851-d40c-4054-9126-72f437fc23f5}, !- Layer 1
  {a306abc5-f781-4822-b9c2-3efd5f1d6f2b}, !- Layer 2
  {3b6ee631-8147-499b-9416-5157a2f49a13}, !- Layer 3
  {88a66141-fedc-4f31-a592-aded1fd6584b}; !- Layer 4

OS:Material,
  {4672f851-d40c-4054-9126-72f437fc23f5}, !- Handle
  Exterior_Finish_Vinyl_Light,            !- Name
  Rough,                                  !- Roughness
  0.009525,                               !- Thickness {m}
  0.089435,                               !- Conductivity {W/m-K}
  177.822,                                !- Density {kg/m3}
  1046.75,                                !- Specific Heat {J/kg-K}
  0.9,                                    !- Thermal Absorptance
  0.3,                                    !- Solar Absorptance
  0.3;                                    !- Visible Absorptance

OS:Material,
  {a306abc5-f781-4822-b9c2-3efd5f1d6f2b}, !- Handle
  Plywood_1_2in,                          !- Name
  Rough,                                  !- Roughness
  0.0127,                                 !- Thickness {m}
  0.1154577,                              !- Conductivity {W/m-K}
  512.64,                                 !- Density {kg/m3}
  1214.23;                                !- Specific Heat {J/kg-K}

OS:Material,
  {88a66141-fedc-4f31-a592-aded1fd6584b}, !- Handle
  GypsumBoard_1_2in,                      !- Name
  Rough,                                  !- Roughness
  0.0127,                                 !- Thickness {m}
  0.1602906,                              !- Conductivity {W/m-K}
  801,                                    !- Density {kg/m3}
  837.4;                                  !- Specific Heat {J/kg-K}

OS:Material,
  {3b6ee631-8147-499b-9416-5157a2f49a13}, !- Handle
  StudandCavity,                          !- Name
  Rough,                                  !- Roughness
  0.0889,                                 !- Thickness {m}
  0.0813466620025512,                     !- Conductivity {W/m-K}
  160.735273569433,                       !- Density {kg/m3}
  1180.27617856933;                       !- Specific Heat {J/kg-K}

