
OS:Version,
  {40a8e1d0-4651-456a-a9ff-ee7903cfaea3}, !- Handle
  1.3.1;                                  !- Version Identifier

OS:Construction,
  {056f2d21-ff84-4e92-b373-24b399e4ee0c}, !- Handle
  ExtInsFinWall,                          !- Name
  ,                                       !- Surface Rendering Name
  {79304457-92ff-4200-89c3-b56fba77c5b1}, !- Layer 1
  {44914043-41e1-4562-a61c-f081dc58ca71}, !- Layer 2
  {17c42625-1715-4fa7-862c-713a790a5fb7}, !- Layer 3
  {897b8b73-87bf-4eef-8309-e392b397cf4c}; !- Layer 4

OS:Material,
  {79304457-92ff-4200-89c3-b56fba77c5b1}, !- Handle
  Exterior_Finish_Vinyl_Light,            !- Name
  Rough,                                  !- Roughness
  0.009525,                               !- Thickness {m}
  0.089435,                               !- Conductivity {W/m-K}
  177.822,                                !- Density {kg/m3}
  1046.75,                                !- Specific Heat {J/kg-K}
  0.9,                                    !- Thermal Absorptance
  0.3,                                    !- Solar Absorptance
  0.3;                                    !- Visible Absorptance

OS:Material,
  {897b8b73-87bf-4eef-8309-e392b397cf4c}, !- Handle
  GypsumBoard_1_2in,                      !- Name
  Rough,                                  !- Roughness
  0.0127,                                 !- Thickness {m}
  0.1602906,                              !- Conductivity {W/m-K}
  801,                                    !- Density {kg/m3}
  837.4;                                  !- Specific Heat {J/kg-K}

OS:Material,
  {44914043-41e1-4562-a61c-f081dc58ca71}, !- Handle
  CMU,                                    !- Name
  Rough,                                  !- Roughness
  0.3048,                                 !- Thickness {m}
  0.378159830829798,                      !- Conductivity {W/m-K}
  764.28216,                              !- Density {kg/m3}
  856.609578267795;                       !- Specific Heat {J/kg-K}

OS:Material,
  {17c42625-1715-4fa7-862c-713a790a5fb7}, !- Handle
  Furring,                                !- Name
  Rough,                                  !- Roughness
  0.0508,                                 !- Thickness {m}
  0.04084516645,                          !- Conductivity {W/m-K}
  110.3341455,                            !- Density {kg/m3}
  1154.52431712832;                       !- Specific Heat {J/kg-K}

