
OS:Version,
  {6496bd86-de79-468e-8354-d7f69ce09dd5}, !- Handle
  1.3.1;                                  !- Version Identifier

OS:Construction,
  {62fe037e-5d3a-479c-b952-d62e6b9579fb}, !- Handle
  UnfinCSInsFinFloor,                     !- Name
  ,                                       !- Surface Rendering Name
  {71d5bd58-3691-4560-a09e-eb3eb18c4d25}, !- Layer 1
  {7e971536-571a-48a1-a281-37c70bce0332}, !- Layer 2
  {28283a90-8fe3-475c-abe8-6d29aadaf2e5}, !- Layer 3
  {e651f7b2-969b-4942-b6f1-195a690587fc}; !- Layer 4

OS:Material,
  {7e971536-571a-48a1-a281-37c70bce0332}, !- Handle
  Plywood_3_4in,                          !- Name
  Rough,                                  !- Roughness
  0.01905,                                !- Thickness {m}
  0.1154577,                              !- Conductivity {W/m-K}
  512.64,                                 !- Density {kg/m3}
  1214.23;                                !- Specific Heat {J/kg-K}

OS:Material,
  {28283a90-8fe3-475c-abe8-6d29aadaf2e5}, !- Handle
  Floor_Mass_Wood_Surface,                !- Name
  Rough,                                  !- Roughness
  0.015875,                               !- Thickness {m}
  0.1154577,                              !- Conductivity {W/m-K}
  544.68,                                 !- Density {kg/m3}
  1214.23,                                !- Specific Heat {J/kg-K}
  0.9,                                    !- Thermal Absorptance
  0.6;                                    !- Solar Absorptance

OS:Material,
  {e651f7b2-969b-4942-b6f1-195a690587fc}, !- Handle
  CarpetBareLayer,                        !- Name
  Rough,                                  !- Roughness
  0.0127,                                 !- Thickness {m}
  0.0433443509615385,                     !- Conductivity {W/m-K}
  54.4679999999999,                       !- Density {kg/m3}
  1339.84;                                !- Specific Heat {J/kg-K}

OS:Material,
  {71d5bd58-3691-4560-a09e-eb3eb18c4d25}, !- Handle
  CrawlCeilingIns,                        !- Name
  Rough,                                  !- Roughness
  0.23495,                                !- Thickness {m}
  0.0435332421077723,                     !- Conductivity {W/m-K}
  106.36479,                              !- Density {kg/m3}
  1151.68513065742;                       !- Specific Heat {J/kg-K}

