
OS:Version,
  {6b3fda31-89b2-4e43-a002-56e0a65c24e9}, !- Handle
  1.5.0;                                  !- Version Identifier

OS:Rendering:Color,
  {d1e86687-6885-4070-81da-3a576f17ff5c}, !- Handle
  Rendering Color 1,                      !- Name
  230,                                    !- Rendering Red Value
  157,                                    !- Rendering Green Value
  120;                                    !- Rendering Blue Value

OS:Rendering:Color,
  {a57916a4-2d44-41b9-a1e1-917f01e6e980}, !- Handle
  Rendering Color 2,                      !- Name
  120,                                    !- Rendering Red Value
  230,                                    !- Rendering Green Value
  199;                                    !- Rendering Blue Value

OS:Rendering:Color,
  {ec05571d-f09e-46c5-830e-02e7c83716e2}, !- Handle
  Rendering Color 3,                      !- Name
  230,                                    !- Rendering Red Value
  196,                                    !- Rendering Green Value
  120;                                    !- Rendering Blue Value

OS:Rendering:Color,
  {9637cafc-bc8f-40aa-8756-39cbbba37ac4}, !- Handle
  Rendering Color 4,                      !- Name
  169,                                    !- Rendering Red Value
  31,                                     !- Rendering Green Value
  31;                                     !- Rendering Blue Value

OS:Rendering:Color,
  {8a8c0cb1-8336-469c-bca4-e17997f803bb}, !- Handle
  Rendering Color 5,                      !- Name
  41,                                     !- Rendering Red Value
  31,                                     !- Rendering Green Value
  169;                                    !- Rendering Blue Value

OS:Rendering:Color,
  {20b4e546-0bb5-45c4-b8f0-ba4246a49c01}, !- Handle
  Rendering Color 6,                      !- Name
  41,                                     !- Rendering Red Value
  31,                                     !- Rendering Green Value
  169;                                    !- Rendering Blue Value

OS:Rendering:Color,
  {0e5a132c-e7c3-4583-ad5a-cf0bf0fe2d03}, !- Handle
  Rendering Color 7,                      !- Name
  230,                                    !- Rendering Red Value
  157,                                    !- Rendering Green Value
  120;                                    !- Rendering Blue Value

OS:Rendering:Color,
  {e1b28003-ba15-4183-b5d9-585f72709eff}, !- Handle
  Rendering Color 8,                      !- Name
  120,                                    !- Rendering Red Value
  230,                                    !- Rendering Green Value
  199;                                    !- Rendering Blue Value

OS:Building,
  {f73b031c-bb31-4fa0-ad96-2e9846c4d752}, !- Handle
  simple residential geometry,            !- Name
  ,                                       !- Building Sector Type
  ,                                       !- North Axis {deg}
  ,                                       !- Nominal Floor to Floor Height {m}
  ,                                       !- Space Type Name
  ,                                       !- Default Construction Set Name
  ,                                       !- Default Schedule Set Name
  ,                                       !- Standards Number of Stories
  ,                                       !- Standards Number of Above Ground Stories
  ;                                       !- Standards Building Type

OS:Rendering:Color,
  {061734ce-19f4-4c27-a203-4b67b00d47ac}, !- Handle
  Rendering Color 9,                      !- Name
  41,                                     !- Rendering Red Value
  31,                                     !- Rendering Green Value
  169;                                    !- Rendering Blue Value

OS:Rendering:Color,
  {e64f5cb7-2c3d-45a9-84a6-367125f15aff}, !- Handle
  Rendering Color 10,                     !- Name
  169,                                    !- Rendering Red Value
  169,                                    !- Rendering Green Value
  31;                                     !- Rendering Blue Value

OS:Rendering:Color,
  {d956b768-7de2-4589-97c3-e0178f40b773}, !- Handle
  Rendering Color 11,                     !- Name
  230,                                    !- Rendering Red Value
  157,                                    !- Rendering Green Value
  120;                                    !- Rendering Blue Value

OS:Rendering:Color,
  {40564289-28c7-4fd8-b822-fe7139d1f5bf}, !- Handle
  Rendering Color 12,                     !- Name
  120,                                    !- Rendering Red Value
  149,                                    !- Rendering Green Value
  230;                                    !- Rendering Blue Value

OS:Rendering:Color,
  {cf88ad3d-58c9-452c-88c4-ac7ea371f930}, !- Handle
  Rendering Color 13,                     !- Name
  230,                                    !- Rendering Red Value
  157,                                    !- Rendering Green Value
  120;                                    !- Rendering Blue Value

OS:DesignSpecification:OutdoorAir,
  {6dbe4189-6232-4d6e-9ac9-63d6e0ee9668}, !- Handle
  189.1-2009 - Office - Vending - CZ1-3 Ventilation, !- Name
  Sum,                                    !- Outdoor Air Method
  ,                                       !- Outdoor Air Flow per Person {m3/s-person}
  0.000254,                               !- Outdoor Air Flow per Floor Area {m3/s-m2}
  ,                                       !- Outdoor Air Flow Rate {m3/s}
  ,                                       !- Outdoor Air Flow Air Changes per Hour {1/hr}
  ;                                       !- Outdoor Air Flow Rate Fraction Schedule Name

OS:ThermostatSetpoint:DualSetpoint,
  {de4444a1-34f5-4cf5-ac22-7469b7be466d}, !- Handle
  189.1-2009 - Office - Vending - CZ1-3 Thermostat, !- Name
  ,                                       !- Heating Setpoint Temperature Schedule Name
  ;                                       !- Cooling Setpoint Temperature Schedule Name

OS:Rendering:Color,
  {6fc91438-7cba-42dc-a37d-48434d3c06ca}, !- Handle
  Rendering Color 14,                     !- Name
  120,                                    !- Rendering Red Value
  230,                                    !- Rendering Green Value
  199;                                    !- Rendering Blue Value

OS:ScheduleTypeLimits,
  {55c44e2f-3c81-40b0-84f7-9b6efa1c1036}, !- Handle
  Fractional,                             !- Name
  0,                                      !- Lower Limit Value {BasedOnField A4}
  1,                                      !- Upper Limit Value {BasedOnField A4}
  Continuous;                             !- Numeric Type

OS:DesignSpecification:OutdoorAir,
  {b1c52cb5-3326-4b43-a12f-f30cb1ac3119}, !- Handle
  189.1-2009 - Office - WholeBuilding - Lg Office - CZ1-3 Ventilation, !- Name
  Sum,                                    !- Outdoor Air Method
  0.009438948864,                         !- Outdoor Air Flow per Person {m3/s-person}
  ,                                       !- Outdoor Air Flow per Floor Area {m3/s-m2}
  ,                                       !- Outdoor Air Flow Rate {m3/s}
  ,                                       !- Outdoor Air Flow Air Changes per Hour {1/hr}
  ;                                       !- Outdoor Air Flow Rate Fraction Schedule Name

OS:ScheduleTypeLimits,
  {d29d6f61-dbb6-43a0-8e80-994bfb4a73b2}, !- Handle
  ActivityLevel 5,                        !- Name
  0,                                      !- Lower Limit Value {BasedOnField A4}
  ,                                       !- Upper Limit Value {BasedOnField A4}
  Continuous,                             !- Numeric Type
  ActivityLevel;                          !- Unit Type

OS:ThermostatSetpoint:DualSetpoint,
  {2e5bfd45-be53-46a2-a1be-badb1d1f9ae8}, !- Handle
  189.1-2009 - Office - WholeBuilding - Lg Office - CZ1-3 Thermostat, !- Name
  ,                                       !- Heating Setpoint Temperature Schedule Name
  ;                                       !- Cooling Setpoint Temperature Schedule Name

OS:ScheduleTypeLimits,
  {81589aa3-85f3-4555-b92c-d10e45fa9ee1}, !- Handle
  Temperature 3,                          !- Name
  ,                                       !- Lower Limit Value {BasedOnField A4}
  ,                                       !- Upper Limit Value {BasedOnField A4}
  Continuous,                             !- Numeric Type
  Temperature;                            !- Unit Type

OS:ScheduleTypeLimits,
  {088565a9-dd39-48f6-99d3-bfe5073149c2}, !- Handle
  Temperature 5,                          !- Name
  ,                                       !- Lower Limit Value {BasedOnField A4}
  ,                                       !- Upper Limit Value {BasedOnField A4}
  Continuous,                             !- Numeric Type
  Temperature;                            !- Unit Type

OS:Rendering:Color,
  {03e06c9d-a4bc-49de-952a-4329faa7fb71}, !- Handle
  Rendering Color 15,                     !- Name
  120,                                    !- Rendering Red Value
  230,                                    !- Rendering Green Value
  199;                                    !- Rendering Blue Value

OS:Rendering:Color,
  {acb4804a-6b98-49bc-8337-c128f3c2ea30}, !- Handle
  Rendering Color 16,                     !- Name
  120,                                    !- Rendering Red Value
  230,                                    !- Rendering Green Value
  199;                                    !- Rendering Blue Value

OS:Rendering:Color,
  {99b31bfd-0d42-45f4-a0d8-d4817aca24ae}, !- Handle
  Rendering Color 17,                     !- Name
  230,                                    !- Rendering Red Value
  157,                                    !- Rendering Green Value
  120;                                    !- Rendering Blue Value

OS:Rendering:Color,
  {6dc82c65-0965-48c5-9394-1f57bef18075}, !- Handle
  Rendering Color 18,                     !- Name
  120,                                    !- Rendering Red Value
  230,                                    !- Rendering Green Value
  199;                                    !- Rendering Blue Value

OS:Rendering:Color,
  {202e2808-fe0a-49ec-8437-4c794472a9a0}, !- Handle
  Rendering Color 19,                     !- Name
  230,                                    !- Rendering Red Value
  196,                                    !- Rendering Green Value
  120;                                    !- Rendering Blue Value

OS:Rendering:Color,
  {340eeae9-9587-4e04-b7fe-21214fa0042c}, !- Handle
  Rendering Color 20,                     !- Name
  169,                                    !- Rendering Red Value
  31,                                     !- Rendering Green Value
  31;                                     !- Rendering Blue Value

OS:Rendering:Color,
  {09cc0a44-bde3-4ae8-97d5-6973b620eb23}, !- Handle
  Rendering Color 21,                     !- Name
  41,                                     !- Rendering Red Value
  31,                                     !- Rendering Green Value
  169;                                    !- Rendering Blue Value

OS:Rendering:Color,
  {03a758bb-e62a-48b9-97b4-e7c9725503de}, !- Handle
  Rendering Color 22,                     !- Name
  41,                                     !- Rendering Red Value
  31,                                     !- Rendering Green Value
  169;                                    !- Rendering Blue Value

OS:DesignSpecification:OutdoorAir,
  {c78ecc49-33c1-4baa-8f4a-3a3d4e3253e7}, !- Handle
  189.1-2009 - Office - IT_Room - CZ4-8 Ventilation, !- Name
  Sum,                                    !- Outdoor Air Method
  ,                                       !- Outdoor Air Flow per Person {m3/s-person}
  0.000254,                               !- Outdoor Air Flow per Floor Area {m3/s-m2}
  ,                                       !- Outdoor Air Flow Rate {m3/s}
  ,                                       !- Outdoor Air Flow Air Changes per Hour {1/hr}
  ;                                       !- Outdoor Air Flow Rate Fraction Schedule Name

OS:ThermostatSetpoint:DualSetpoint,
  {d067df76-cf76-4cf6-aa35-0cbb12b8656a}, !- Handle
  189.1-2009 - Office - IT_Room - CZ4-8 Thermostat, !- Name
  ,                                       !- Heating Setpoint Temperature Schedule Name
  ;                                       !- Cooling Setpoint Temperature Schedule Name

OS:Rendering:Color,
  {74dc8dad-959b-491c-a50a-9af6ecd0a669}, !- Handle
  Rendering Color 23,                     !- Name
  230,                                    !- Rendering Red Value
  157,                                    !- Rendering Green Value
  120;                                    !- Rendering Blue Value

OS:DesignSpecification:OutdoorAir,
  {dbdfd940-1c36-4bd0-afb4-880a785c5e6f}, !- Handle
  189.1-2009 - Office - Lobby - CZ4-8 Ventilation, !- Name
  Sum,                                    !- Outdoor Air Method
  0.007079211648,                         !- Outdoor Air Flow per Person {m3/s-person}
  ,                                       !- Outdoor Air Flow per Floor Area {m3/s-m2}
  ,                                       !- Outdoor Air Flow Rate {m3/s}
  ,                                       !- Outdoor Air Flow Air Changes per Hour {1/hr}
  ;                                       !- Outdoor Air Flow Rate Fraction Schedule Name

OS:ThermostatSetpoint:DualSetpoint,
  {3fabcd0e-e1a5-4e00-9e23-9e19d5c555d9}, !- Handle
  189.1-2009 - Office - Lobby - CZ4-8 Thermostat, !- Name
  ,                                       !- Heating Setpoint Temperature Schedule Name
  ;                                       !- Cooling Setpoint Temperature Schedule Name

OS:Rendering:Color,
  {ede0a72d-692f-411e-898f-ccb1f783c262}, !- Handle
  Rendering Color 24,                     !- Name
  120,                                    !- Rendering Red Value
  230,                                    !- Rendering Green Value
  199;                                    !- Rendering Blue Value

OS:DesignSpecification:OutdoorAir,
  {f4a649b7-7f7c-4bc5-9b02-e4e1aa4803e9}, !- Handle
  189.1-2009 - Office - OpenOffice - CZ4-8 Ventilation, !- Name
  Sum,                                    !- Outdoor Air Method
  0.009438948864,                         !- Outdoor Air Flow per Person {m3/s-person}
  ,                                       !- Outdoor Air Flow per Floor Area {m3/s-m2}
  ,                                       !- Outdoor Air Flow Rate {m3/s}
  ,                                       !- Outdoor Air Flow Air Changes per Hour {1/hr}
  ;                                       !- Outdoor Air Flow Rate Fraction Schedule Name

OS:ThermostatSetpoint:DualSetpoint,
  {847f379b-0ddb-4308-a125-44b06cceb0c0}, !- Handle
  189.1-2009 - Office - OpenOffice - CZ4-8 Thermostat, !- Name
  ,                                       !- Heating Setpoint Temperature Schedule Name
  ;                                       !- Cooling Setpoint Temperature Schedule Name

OS:Rendering:Color,
  {b7fe6f07-3ac4-4ca1-9186-5c7889d7b3da}, !- Handle
  Rendering Color 25,                     !- Name
  41,                                     !- Rendering Red Value
  31,                                     !- Rendering Green Value
  169;                                    !- Rendering Blue Value

OS:DesignSpecification:OutdoorAir,
  {6c78e848-e562-4461-b538-4e3e3c4e848c}, !- Handle
  189.1-2009 - Office - PrintRoom - CZ4-8 Ventilation, !- Name
  Sum,                                    !- Outdoor Air Method
  ,                                       !- Outdoor Air Flow per Person {m3/s-person}
  0.000254,                               !- Outdoor Air Flow per Floor Area {m3/s-m2}
  ,                                       !- Outdoor Air Flow Rate {m3/s}
  ,                                       !- Outdoor Air Flow Air Changes per Hour {1/hr}
  ;                                       !- Outdoor Air Flow Rate Fraction Schedule Name

OS:ThermostatSetpoint:DualSetpoint,
  {9a24efdb-aaf9-4caf-8ef9-e063f557395c}, !- Handle
  189.1-2009 - Office - PrintRoom - CZ4-8 Thermostat, !- Name
  ,                                       !- Heating Setpoint Temperature Schedule Name
  ;                                       !- Cooling Setpoint Temperature Schedule Name

OS:Rendering:Color,
  {719a1449-7853-4161-927b-bdb7f01806ed}, !- Handle
  Rendering Color 26,                     !- Name
  169,                                    !- Rendering Red Value
  169,                                    !- Rendering Green Value
  31;                                     !- Rendering Blue Value

OS:DesignSpecification:OutdoorAir,
  {1aeb672d-5c17-4118-b3f0-dfbc58007e1f}, !- Handle
  189.1-2009 - Office - Restroom - CZ4-8 Ventilation, !- Name
  Sum,                                    !- Outdoor Air Method
  ,                                       !- Outdoor Air Flow per Person {m3/s-person}
  0.0048768,                              !- Outdoor Air Flow per Floor Area {m3/s-m2}
  ,                                       !- Outdoor Air Flow Rate {m3/s}
  ,                                       !- Outdoor Air Flow Air Changes per Hour {1/hr}
  ;                                       !- Outdoor Air Flow Rate Fraction Schedule Name

OS:ThermostatSetpoint:DualSetpoint,
  {ec97771e-4971-46b0-91e9-3785d44f364f}, !- Handle
  189.1-2009 - Office - Restroom - CZ4-8 Thermostat, !- Name
  ,                                       !- Heating Setpoint Temperature Schedule Name
  ;                                       !- Cooling Setpoint Temperature Schedule Name

OS:Rendering:Color,
  {6f557e2a-06b2-4e96-bd62-f7b1f6d0b22c}, !- Handle
  Rendering Color 27,                     !- Name
  230,                                    !- Rendering Red Value
  157,                                    !- Rendering Green Value
  120;                                    !- Rendering Blue Value

OS:DesignSpecification:OutdoorAir,
  {06eb26bf-daae-4d7b-802f-f14f4973bffc}, !- Handle
  189.1-2009 - Office - Stair - CZ4-8 Ventilation, !- Name
  Sum,                                    !- Outdoor Air Method
  ,                                       !- Outdoor Air Flow per Person {m3/s-person}
  0.000254,                               !- Outdoor Air Flow per Floor Area {m3/s-m2}
  ,                                       !- Outdoor Air Flow Rate {m3/s}
  ,                                       !- Outdoor Air Flow Air Changes per Hour {1/hr}
  ;                                       !- Outdoor Air Flow Rate Fraction Schedule Name

OS:ThermostatSetpoint:DualSetpoint,
  {e23342a6-14bf-4244-a12e-b8f3f6c04563}, !- Handle
  189.1-2009 - Office - Stair - CZ4-8 Thermostat, !- Name
  ,                                       !- Heating Setpoint Temperature Schedule Name
  ;                                       !- Cooling Setpoint Temperature Schedule Name

OS:Rendering:Color,
  {e5e5daee-9c0f-481c-8a95-52831d130704}, !- Handle
  Rendering Color 28,                     !- Name
  120,                                    !- Rendering Red Value
  149,                                    !- Rendering Green Value
  230;                                    !- Rendering Blue Value

OS:DesignSpecification:OutdoorAir,
  {891b5948-4e38-4554-a2f6-43f94ec5ae02}, !- Handle
  189.1-2009 - Office - Storage - CZ4-8 Ventilation, !- Name
  Sum,                                    !- Outdoor Air Method
  ,                                       !- Outdoor Air Flow per Person {m3/s-person}
  0.000254,                               !- Outdoor Air Flow per Floor Area {m3/s-m2}
  ,                                       !- Outdoor Air Flow Rate {m3/s}
  ,                                       !- Outdoor Air Flow Air Changes per Hour {1/hr}
  ;                                       !- Outdoor Air Flow Rate Fraction Schedule Name

OS:ThermostatSetpoint:DualSetpoint,
  {6ae2b2b8-720b-4eaf-8895-80b1f0753cad}, !- Handle
  189.1-2009 - Office - Storage - CZ4-8 Thermostat, !- Name
  ,                                       !- Heating Setpoint Temperature Schedule Name
  ;                                       !- Cooling Setpoint Temperature Schedule Name

OS:Rendering:Color,
  {76d6f7c9-7ceb-45e9-8a19-835ab84a952b}, !- Handle
  Rendering Color 29,                     !- Name
  230,                                    !- Rendering Red Value
  157,                                    !- Rendering Green Value
  120;                                    !- Rendering Blue Value

OS:DesignSpecification:OutdoorAir,
  {0f1e8aef-c843-4ab6-b548-4c72c5fef55a}, !- Handle
  189.1-2009 - Office - Vending - CZ4-8 Ventilation, !- Name
  Sum,                                    !- Outdoor Air Method
  ,                                       !- Outdoor Air Flow per Person {m3/s-person}
  0.000254,                               !- Outdoor Air Flow per Floor Area {m3/s-m2}
  ,                                       !- Outdoor Air Flow Rate {m3/s}
  ,                                       !- Outdoor Air Flow Air Changes per Hour {1/hr}
  ;                                       !- Outdoor Air Flow Rate Fraction Schedule Name

OS:ThermostatSetpoint:DualSetpoint,
  {6c78a447-312c-4c28-b3aa-6da71f9cf8d3}, !- Handle
  189.1-2009 - Office - Vending - CZ4-8 Thermostat, !- Name
  ,                                       !- Heating Setpoint Temperature Schedule Name
  ;                                       !- Cooling Setpoint Temperature Schedule Name

OS:Rendering:Color,
  {a76d196b-e761-4493-8631-b48b5e34c13c}, !- Handle
  Rendering Color 30,                     !- Name
  120,                                    !- Rendering Red Value
  230,                                    !- Rendering Green Value
  199;                                    !- Rendering Blue Value

OS:DesignSpecification:OutdoorAir,
  {243951cc-1d54-4682-88de-92f00facb5d4}, !- Handle
  189.1-2009 - Office - WholeBuilding - Lg Office - CZ4-8 Ventilation, !- Name
  Sum,                                    !- Outdoor Air Method
  0.009438948864,                         !- Outdoor Air Flow per Person {m3/s-person}
  ,                                       !- Outdoor Air Flow per Floor Area {m3/s-m2}
  ,                                       !- Outdoor Air Flow Rate {m3/s}
  ,                                       !- Outdoor Air Flow Air Changes per Hour {1/hr}
  ;                                       !- Outdoor Air Flow Rate Fraction Schedule Name

OS:ThermostatSetpoint:DualSetpoint,
  {2829a6a3-d557-49c2-883a-6f3c5888d3dc}, !- Handle
  189.1-2009 - Office - WholeBuilding - Lg Office - CZ4-8 Thermostat, !- Name
  ,                                       !- Heating Setpoint Temperature Schedule Name
  ;                                       !- Cooling Setpoint Temperature Schedule Name

OS:Rendering:Color,
  {d962ce0f-1f09-4520-8086-d251309638ff}, !- Handle
  Rendering Color 31,                     !- Name
  120,                                    !- Rendering Red Value
  230,                                    !- Rendering Green Value
  199;                                    !- Rendering Blue Value

OS:DesignSpecification:OutdoorAir,
  {3157c89d-76b6-49f9-b874-c887b361d5a2}, !- Handle
  189.1-2009 - Office - WholeBuilding - Md Office - CZ4-8 Ventilation, !- Name
  Sum,                                    !- Outdoor Air Method
  0.009438948864,                         !- Outdoor Air Flow per Person {m3/s-person}
  ,                                       !- Outdoor Air Flow per Floor Area {m3/s-m2}
  ,                                       !- Outdoor Air Flow Rate {m3/s}
  ,                                       !- Outdoor Air Flow Air Changes per Hour {1/hr}
  ;                                       !- Outdoor Air Flow Rate Fraction Schedule Name

OS:ThermostatSetpoint:DualSetpoint,
  {125be356-b9df-4681-bbaa-d4c8cacde878}, !- Handle
  189.1-2009 - Office - WholeBuilding - Md Office - CZ4-8 Thermostat, !- Name
  ,                                       !- Heating Setpoint Temperature Schedule Name
  ;                                       !- Cooling Setpoint Temperature Schedule Name

OS:Rendering:Color,
  {2fd05332-007b-4350-8fd3-4733ddca3f69}, !- Handle
  Rendering Color 32,                     !- Name
  120,                                    !- Rendering Red Value
  230,                                    !- Rendering Green Value
  199;                                    !- Rendering Blue Value

OS:Facility,
  {9e1249ab-6339-44c1-8e29-ea023c63d8d4}; !- Handle

OS:Rendering:Color,
  {1dc8645a-1020-411f-b464-b75609213d2d}, !- Handle
  Rendering Color 33,                     !- Name
  255,                                    !- Rendering Red Value
  250,                                    !- Rendering Green Value
  205;                                    !- Rendering Blue Value

OS:Rendering:Color,
  {c7a48cfe-5343-4d88-907b-ca6b2c7234ae}, !- Handle
  Rendering Color 34,                     !- Name
  47,                                     !- Rendering Red Value
  79,                                     !- Rendering Green Value
  79;                                     !- Rendering Blue Value

OS:Rendering:Color,
  {3b08bc21-96b9-4036-b670-50cc5156ce2b}, !- Handle
  Rendering Color 35,                     !- Name
  245,                                    !- Rendering Red Value
  255,                                    !- Rendering Green Value
  250;                                    !- Rendering Blue Value

OS:Rendering:Color,
  {5e4b988c-4474-440f-aea9-3faeac46c487}, !- Handle
  Rendering Color 36,                     !- Name
  85,                                     !- Rendering Red Value
  107,                                    !- Rendering Green Value
  47;                                     !- Rendering Blue Value

OS:Rendering:Color,
  {8ce9b2be-50f6-4171-98f5-25aff13be9a1}, !- Handle
  Rendering Color 37,                     !- Name
  50,                                     !- Rendering Red Value
  205,                                    !- Rendering Green Value
  50;                                     !- Rendering Blue Value

OS:Rendering:Color,
  {51a7c425-9a9c-4eb9-b251-e8f6ae6a801a}, !- Handle
  Rendering Color 38,                     !- Name
  0,                                      !- Rendering Red Value
  100,                                    !- Rendering Green Value
  0;                                      !- Rendering Blue Value

OS:Rendering:Color,
  {6f24b3d8-15b6-481d-b1ef-5dda536a9e94}, !- Handle
  Rendering Color 39,                     !- Name
  255,                                    !- Rendering Red Value
  182,                                    !- Rendering Green Value
  193;                                    !- Rendering Blue Value

OS:Rendering:Color,
  {db321262-2f48-4e28-96ad-46eb0f5d3387}, !- Handle
  Rendering Color 40,                     !- Name
  178,                                    !- Rendering Red Value
  34,                                     !- Rendering Green Value
  34;                                     !- Rendering Blue Value

OS:Rendering:Color,
  {18161b8e-c08e-4ecd-aca4-9b6cb9407008}, !- Handle
  Rendering Color 41,                     !- Name
  248,                                    !- Rendering Red Value
  248,                                    !- Rendering Green Value
  255;                                    !- Rendering Blue Value

OS:Rendering:Color,
  {bc89cff0-fd34-4968-a839-03d26b895fdf}, !- Handle
  Rendering Color 42,                     !- Name
  139,                                    !- Rendering Red Value
  0,                                      !- Rendering Green Value
  0;                                      !- Rendering Blue Value

OS:Rendering:Color,
  {2cf24dd8-2d89-48f5-bf74-57447724a143}, !- Handle
  Rendering Color 43,                     !- Name
  0,                                      !- Rendering Red Value
  255,                                    !- Rendering Green Value
  255;                                    !- Rendering Blue Value

OS:Rendering:Color,
  {6c5dfb25-4f87-468a-a895-81c590510058}, !- Handle
  Rendering Color 44,                     !- Name
  50,                                     !- Rendering Red Value
  205,                                    !- Rendering Green Value
  50;                                     !- Rendering Blue Value

OS:Rendering:Color,
  {878ccbca-4f89-411f-a28a-1e1a9db99d83}, !- Handle
  Rendering Color 45,                     !- Name
  210,                                    !- Rendering Red Value
  180,                                    !- Rendering Green Value
  140;                                    !- Rendering Blue Value

OS:Rendering:Color,
  {8039af3f-c651-47c6-b382-0e9093de10db}, !- Handle
  Rendering Color 46,                     !- Name
  250,                                    !- Rendering Red Value
  250,                                    !- Rendering Green Value
  210;                                    !- Rendering Blue Value

OS:Rendering:Color,
  {a6d52e86-27fd-445f-ae19-41f804e75c5e}, !- Handle
  Rendering Color 47,                     !- Name
  0,                                      !- Rendering Red Value
  206,                                    !- Rendering Green Value
  209;                                    !- Rendering Blue Value

OS:Rendering:Color,
  {f38f0463-a5b9-4aa9-bc99-858e48bb5122}, !- Handle
  Rendering Color 48,                     !- Name
  255,                                    !- Rendering Red Value
  255,                                    !- Rendering Green Value
  240;                                    !- Rendering Blue Value

OS:Rendering:Color,
  {2a5c568d-e35e-4833-b3e8-31e6b17e4f93}, !- Handle
  Rendering Color 49,                     !- Name
  221,                                    !- Rendering Red Value
  160,                                    !- Rendering Green Value
  221;                                    !- Rendering Blue Value

OS:Rendering:Color,