
OS:Version,
  {4912ba89-de2c-4a27-b150-33125f63e77b}, !- Handle
  1.9.0;                                  !- Version Identifier

OS:Site,
  {9dc6c96e-0a14-40a1-bc51-f3a02e81f928}, !- Handle
  Chicago Ohare Intl Ap,                  !- Name
  41.98,                                  !- Latitude {deg}
  -87.92,                                 !- Longitude {deg}
  -6,                                     !- Time Zone {hr}
  201,                                    !- Elevation {m}
  Suburbs;                                !- Terrain

OS:SimulationControl,
  {c2c2c45b-e4c1-45ea-ac7a-72c208e31e9f}, !- Handle
  Yes,                                    !- Do Zone Sizing Calculation
  No,                                     !- Do System Sizing Calculation
  Yes,                                    !- Do Plant Sizing Calculation
  No,                                     !- Run Simulation for Sizing Periods
  Yes,                                    !- Run Simulation for Weather File Run Periods
  0.05,                                   !- Loads Convergence Tolerance Value
  0.05,                                   !- Temperature Convergence Tolerance Value {deltaC}
  FullExterior,                           !- Solar Distribution
  50;                                     !- Maximum Number of Warmup Days

OS:Construction,
  {4ee1a26e-6d5f-49d6-8173-0778b38b182f}, !- Handle
  FBsmtRimJoist,                          !- Name
  {a88f15f0-05d7-49a6-96bb-736ca07e4bba}, !- Surface Rendering Name
  {7038fa3d-974f-4684-9e27-476fb0657a62}, !- Layer 1
  {b5525153-15c4-42d4-8c02-0e60cef7aa6f}, !- Layer 2
  {7864fbe7-6161-42a6-8d6e-ab93db6f4af5}, !- Layer 3
  {a611cb8e-1229-450e-ae97-6392d3034632}; !- Layer 4

OS:Material,
  {7038fa3d-974f-4684-9e27-476fb0657a62}, !- Handle
  ExteriorFinish,                         !- Name
  Rough,                                  !- Roughness
  0.0254,                                 !- Thickness {m}
  0.649125,                               !- Conductivity {W/m-K}
  1281.6,                                 !- Density {kg/m3}
  879.27,                                 !- Specific Heat {J/kg-K}
  0.9,                                    !- Thermal Absorptance
  0.75,                                   !- Solar Absorptance
  0.75;                                   !- Visible Absorptance

OS:Material,
  {b5525153-15c4-42d4-8c02-0e60cef7aa6f}, !- Handle
  Plywood-3_2in,                          !- Name
  Rough,                                  !- Roughness
  0.0381,                                 !- Thickness {m}
  0.1154577,                              !- Conductivity {W/m-K}
  512.64,                                 !- Density {kg/m3}
  1214.23;                                !- Specific Heat {J/kg-K}

OS:Material,
  {7864fbe7-6161-42a6-8d6e-ab93db6f4af5}, !- Handle
  FBsmtJoistandCavity,                    !- Name
  Rough,                                  !- Roughness
  0.23495,                                !- Thickness {m}
  0.211066712461878,                      !- Conductivity {W/m-K}
  82.081674,                              !- Density {kg/m3}
  1128.33754025411;                       !- Specific Heat {J/kg-K}

OS:Material,
  {a611cb8e-1229-450e-ae97-6392d3034632}, !- Handle
  GypsumBoard-1_2in,                      !- Name
  Rough,                                  !- Roughness
  0.0127,                                 !- Thickness {m}
  0.1602906,                              !- Conductivity {W/m-K}
  801,                                    !- Density {kg/m3}
  837.4,                                  !- Specific Heat {J/kg-K}
  0.9,                                    !- Thermal Absorptance
  0.5,                                    !- Solar Absorptance
  0.1;                                    !- Visible Absorptance

OS:SubSurface,
  {ddcf824c-8ad2-4aab-9062-a0befd2240dd}, !- Handle
  Wall12-Window2,                         !- Name
  FixedWindow,                            !- Sub Surface Type
  {d14d1e39-c49b-4506-843f-63632a4cf25f}, !- Construction Name
  {66f0622e-179e-4ebb-a615-e5c3bc00ca47}, !- Surface Name
  ,                                       !- Outside Boundary Condition Object
  0.5,                                    !- View Factor to Ground
  ,                                       !- Shading Control Name
  ,                                       !- Frame and Divider Name
  1,                                      !- Multiplier
  ,                                       !- Number of Vertices
  11.8872, 1.818362846376, 2.1336,        !- X,Y,Z Vertex 1 {m}
  11.8872, 1.818362846376, 1.063311405504, !- X,Y,Z Vertex 2 {m}
  11.8872, 2.621280042672, 1.063311405504, !- X,Y,Z Vertex 3 {m}
  11.8872, 2.621280042672, 2.1336;        !- X,Y,Z Vertex 4 {m}

OS:Construction,
  {d14d1e39-c49b-4506-843f-63632a4cf25f}, !- Handle
  Right-Glass,                            !- Name
  {dddb61d9-a3d5-416f-bd36-8fca61ca5b27}, !- Surface Rendering Name
  {221c8429-912a-4257-8a9d-3080c2a1a33f}; !- Layer 1

OS:WindowMaterial:SimpleGlazingSystem,
  {221c8429-912a-4257-8a9d-3080c2a1a33f}, !- Handle
  Right-Win,                              !- Name
  1.98076528277124,                       !- U-Factor {W/m2-K}
  0.309130645437316;                      !- Solar Heat Gain Coefficient

OS:Surface,
  {66f0622e-179e-4ebb-a615-e5c3bc00ca47}, !- Handle
  Wall12,                                 !- Name
  Wall,                                   !- Surface Type
  {7b5f739f-3cc6-4450-81c1-8a78ec1b8029}, !- Construction Name
  {d3d39da8-4ab4-4fe4-9ab7-1a1027f44923}, !- Space Name
  Outdoors,                               !- Outside Boundary Condition
  ,                                       !- Outside Boundary Condition Object
  SunExposed,                             !- Sun Exposure
  WindExposed,                            !- Wind Exposure
  ,                                       !- View Factor to Ground
  ,                                       !- Number of Vertices
  11.8872, 0, 2.4384,                     !- X,Y,Z Vertex 1 {m}
  11.8872, 0, 0,                          !- X,Y,Z Vertex 2 {m}
  11.8872, 7.9248, 0,                     !- X,Y,Z Vertex 3 {m}
  11.8872, 7.9248, 2.4384;                !- X,Y,Z Vertex 4 {m}

OS:Construction,
  {7b5f739f-3cc6-4450-81c1-8a78ec1b8029}, !- Handle
  ExtInsFinWall,                          !- Name
  {bb480f96-275a-4eeb-b959-9255cee5502c}, !- Surface Rendering Name
  {7038fa3d-974f-4684-9e27-476fb0657a62}, !- Layer 1
  {1f4ef405-9c38-4506-acc9-ccfdc5537849}, !- Layer 2
  {8cda26d3-e671-44bc-aaac-7999d2833900}; !- Layer 3

OS:Material,
  {1f4ef405-9c38-4506-acc9-ccfdc5537849}, !- Handle
  StudandCavity,                          !- Name
  Rough,                                  !- Roughness
  0.0889,                                 !- Thickness {m}
  0.0553845876584766,                     !- Conductivity {W/m-K}
  162.40275,                              !- Density {kg/m3}
  1178.91670776819;                       !- Specific Heat {J/kg-K}

OS:Material,
  {8cda26d3-e671-44bc-aaac-7999d2833900}, !- Handle
  ExtWallMass,                            !- Name
  Rough,                                  !- Roughness
  0.0127,                                 !- Thickness {m}
  0.1602906,                              !- Conductivity {W/m-K}
  801,                                    !- Density {kg/m3}
  837.4,                                  !- Specific Heat {J/kg-K}
  0.9,                                    !- Thermal Absorptance
  0.5,                                    !- Solar Absorptance
  0.1;                                    !- Visible Absorptance

OS:ThermalZone,
  {4e286943-e5cc-40a5-8ef5-c1888fc65cfc}, !- Handle
  living Thermal Zone,                    !- Name
  1,                                      !- Multiplier
  4.8768,                                 !- Ceiling Height {m}
  459.412525728,                          !- Volume {m3}
  ,                                       !- Floor Area {m2}
  ,                                       !- Zone Inside Convection Algorithm
  ,                                       !- Zone Outside Convection Algorithm
  ,                                       !- Zone Conditioning Equipment List Name
  {5a928911-4119-4c74-8f1d-e16ca11e4dd5}, !- Zone Air Inlet Port List
  {6208b144-8c37-456e-bad3-19e852812272}, !- Zone Air Exhaust Port List
  {fb364059-b0af-432b-8607-6b98bdcdf5b8}, !- Zone Air Node Name
  ,                                       !- Zone Return Air Node Name
  ,                                       !- Primary Daylighting Control Name
  ,                                       !- Fraction of Zone Controlled by Primary Daylighting Control
  ,                                       !- Secondary Daylighting Control Name
  ,                                       !- Fraction of Zone Controlled by Secondary Daylighting Control
  ,                                       !- Illuminance Map Name
  {2c8d7ee0-7763-4a80-98ea-1a5c48c3aa82}, !- Group Rendering Name
  ,                                       !- Thermostat Name
  No;                                     !- Use Ideal Air Loads

OS:Node,
  {cfeaa732-35b4-4de1-ba16-6d23bfb60e9b}, !- Handle
  {1a3234ff-4963-4909-81a0-01b9958fb046}, !- Name
  {fb364059-b0af-432b-8607-6b98bdcdf5b8}, !- Inlet Port
  ;                                       !- Outlet Port

OS:Connection,
  {fb364059-b0af-432b-8607-6b98bdcdf5b8}, !- Handle
  {62160d10-3043-4c96-90f4-216494204444}, !- Name
  {4e286943-e5cc-40a5-8ef5-c1888fc65cfc}, !- Source Object
  11,                                     !- Outlet Port
  {cfeaa732-35b4-4de1-ba16-6d23bfb60e9b}, !- Target Object
  2;                                      !- Inlet Port

OS:PortList,
  {5a928911-4119-4c74-8f1d-e16ca11e4dd5}, !- Handle
  {59a7e24f-8833-4c19-9a0d-456e2902cad2}, !- Name
  {4e286943-e5cc-40a5-8ef5-c1888fc65cfc}; !- HVAC Component

OS:PortList,
  {6208b144-8c37-456e-bad3-19e852812272}, !- Handle
  {6727275e-8205-4dbc-b82b-fd0bb2f80dcb}, !- Name
  {4e286943-e5cc-40a5-8ef5-c1888fc65cfc}; !- HVAC Component

OS:Sizing:Zone,
  {c4f95282-a0d8-4fa3-9c64-67f5e16fee63}, !- Handle
  {4e286943-e5cc-40a5-8ef5-c1888fc65cfc}, !- Zone or ZoneList Name
  14,                                     !- Zone Cooling Design Supply Air Temperature {C}
  40,                                     !- Zone Heating Design Supply Air Temperature {C}
  0.0085,                                 !- Zone Cooling Design Supply Air Humidity Ratio {kg-H2O/kg-air}
  0.008,                                  !- Zone Heating Design Supply Air Humidity Ratio {kg-H2O/kg-air}
  ,                                       !- Zone Heating Sizing Factor
  ,                                       !- Zone Cooling Sizing Factor
  DesignDay,                              !- Cooling Design Air Flow Method
  ,                                       !- Cooling Design Air Flow Rate {m3/s}
  ,                                       !- Cooling Minimum Air Flow per Zone Floor Area {m3/s-m2}
  ,                                       !- Cooling Minimum Air Flow {m3/s}
  ,                                       !- Cooling Minimum Air Flow Fraction
  DesignDay,                              !- Heating Design Air Flow Method
  ,                                       !- Heating Design Air Flow Rate {m3/s}
  ,                                       !- Heating Maximum Air Flow per Zone Floor Area {m3/s-m2}
  ,                                       !- Heating Maximum Air Flow {m3/s}
  ,                                       !- Heating Maximum Air Flow Fraction
  ,                                       !- Design Zone Air Distribution Effectiveness in Cooling Mode
  ;                                       !- Design Zone Air Distribution Effectiveness in Heating Mode

OS:ZoneHVAC:EquipmentList,
  {30397250-8ead-47a6-8a45-5f4ba252a217}, !- Handle
  {68ef94b8-520b-4b5c-93b8-bd8a76ae17f7}, !- Name
  {4e286943-e5cc-40a5-8ef5-c1888fc65cfc}; !- Thermal Zone

OS:Space,
  {d3d39da8-4ab4-4fe4-9ab7-1a1027f44923}, !- Handle
  living,                                 !- Name
  {a9d3de29-7027-4ebe-8093-f677f6e66574}, !- Space Type Name
  ,                                       !- Default Construction Set Name
  ,                                       !- Default Schedule Set Name
  0,                                      !- Direction of Relative North {deg}
  -5.9436,                                !- X Origin {m}
  -0.9144,                                !- Y Origin {m}
  0,                                      !- Z Origin {m}
  ,                                       !- Building Story Name
  {4e286943-e5cc-40a5-8ef5-c1888fc65cfc}, !- Thermal Zone Name
  ,                                       !- Part of Total Floor Area
  ;                                       !- Design Specification Outdoor Air Object Name

OS:SubSurface,
  {3880f2a7-50dd-44a4-a4c8-6640a9ba02b4}, !- Handle
  Wall11-Window2,                         !- Name
  FixedWindow,                            !- Sub Surface Type
  {b1f761b5-c319-4b17-86b3-a29f21584681}, !- Construction Name
  {975c89f1-5e3c-4c3e-8dd1-a254b036a0fe}, !- Surface Name
  ,                                       !- Outside Boundary Condition Object
  0.5,                                    !- View Factor to Ground
  ,                                       !- Shading Control Name
  ,                                       !- Frame and Divider Name
  1,                                      !- Multiplier
  ,                                       !- Number of Vertices
  9.76230847128, 0, 2.1336,               !- X,Y,Z Vertex 1 {m}
  9.76230847128, 0, 1.0100636136,         !- X,Y,Z Vertex 2 {m}
  10.60517148456, 0, 1.0100636136,        !- X,Y,Z Vertex 3 {m}
  10.60517148456, 0, 2.1336;              !- X,Y,Z Vertex 4 {m}

OS:Construction,
  {b1f761b5-c319-4b17-86b3-a29f21584681}, !- Handle
  Front-Glass,                            !- Name
  {9d0658f6-96ac-454e-974f-068d67b7344b}, !- Surface Rendering Name
  {6c96e07a-9a9d-4fc1-a3e3-1e2ace0a3484}; !- Layer 1

OS:WindowMaterial:SimpleGlazingSystem,
  {6c96e07a-9a9d-4fc1-a3e3-1e2ace0a3484}, !- Handle
  Front-Win,                              !- Name
  1.98076528277124,                       !- U-Factor {W/m2-K}
  0.309130645437316;                      !- Solar Heat Gain Coefficient

OS:Surface,
  {975c89f1-5e3c-4c3e-8dd1-a254b036a0fe}, !- Handle
  Wall11,                                 !- Name
  Wall,                                   !- Surface Type
  {7b5f739f-3cc6-4450-81c1-8a78ec1b8029}, !- Construction Name
  {d3d39da8-4ab4-4fe4-9ab7-1a1027f44923}, !- Space Name
  Outdoors,                               !- Outside Boundary Condition
  ,                                       !- Outside Boundary Condition Object
  SunExposed,                             !- Sun Exposure
  WindExposed,                            !- Wind Exposure
  ,                                       !- View Factor to Ground
  ,                                       !- Number of Vertices
  6.096, 0, 2.4384,                       !- X,Y,Z Vertex 1 {m}
  6.096, 0, 0,                            !- X,Y,Z Vertex 2 {m}
  11.8872, 0, 0,                          !- X,Y,Z Vertex 3 {m}
  11.8872, 0, 2.4384;                     !- X,Y,Z Vertex 4 {m}

OS:SubSurface,
  {2cb301ac-fc76-4939-9be3-fbf3832a1403}, !- Handle
  Wall10-Window1,                         !- Name
  FixedWindow,                            !- Sub Surface Type
  {bd95afab-0bd6-4c47-8da5-92f98027c0e4}, !- Construction Name
  {e0fe985b-456b-4ba0-976d-89993ba4bc3b}, !- Surface Name
  ,                                       !- Outside Boundary Condition Object
  0.5,                                    !- View Factor to Ground
  ,                                       !- Shading Control Name
  ,                                       !- Frame and Divider Name
  1,                                      !- Multiplier
  ,                                       !- Number of Vertices
  0, 6.106437153624, 2.1336,              !- X,Y,Z Vertex 1 {m}
  0, 6.106437153624, 1.063311405504,      !- X,Y,Z Vertex 2 {m}
  0, 5.303519957328, 1.063311405504,      !- X,Y,Z Vertex 3 {m}
  0, 5.303519957328, 2.1336;              !- X,Y,Z Vertex 4 {m}

OS:Construction,
  {bd95afab-0bd6-4c47-8da5-92f98027c0e4}, !- Handle
  Left-Glass,                             !- Name
  {449de82d-a5b3-4d48-91f7-0c7f710f1cfc}, !- Surface Rendering Name
  {61e62231-ff3d-422f-a557-89b5ef5e55de}; !- Layer 1

OS:WindowMaterial:SimpleGlazingSystem,
  {61e62231-ff3d-422f-a557-89b5ef5e55de}, !- Handle
  Left-Win,                               !- Name
  1.98076528277124,                       !- U-Factor {W/m2-K}
  0.309130645437316;                      !- Solar Heat Gain Coefficient

OS:Surface,
  {e0fe985b-456b-4ba0-976d-89993ba4bc3b}, !- Handle
  Wall10,                                 !- Name
  Wall,                                   !- Surface Type
  {7b5f739f-3cc6-4450-81c1-8a78ec1b8029}, !- Construction Name
  {d3d39da8-4ab4-4fe4-9ab7-1a1027f44923}, !- Space Name
  Outdoors,                               !- Outside Boundary Condition
  ,                                       !- Outside Boundary Condition Object
  SunExposed,                             !- Sun Exposure
  WindExposed,                            !- Wind Exposure
  ,                                       !- View Factor to Ground
  ,                                       !- Number of Vertices
  0, 7.9248, 2.4384,                      !- X,Y,Z Vertex 1 {m}
  0, 7.9248, 0,                           !- X,Y,Z Vertex 2 {m}
  0, 0, 0,                                !- X,Y,Z Vertex 3 {m}
  0, 0, 2.4384;                           !- X,Y,Z Vertex 4 {m}

OS:SubSurface,
  {a04969ac-b787-462b-9677-c0812e28637a}, !- Handle
  Wall17-Window2,                         !- Name
  FixedWindow,                            !- Sub Surface Type
  {d14d1e39-c49b-4506-843f-63632a4cf25f}, !- Construction Name
  {d0f3858b-2927-4c5e-9998-98b0007d4b2e}, !- Surface Name
  ,                                       !- Outside Boundary Condition Object
  0.5,                                    !- View Factor to Ground
  ,                                       !- Shading Control Name
  ,                                       !- Frame and Divider Name
  1,                                      !- Multiplier
  ,                                       !- Number of Vertices
  11.8872, 1.818362846376, 4.572,         !- X,Y,Z Vertex 1 {m}
  11.8872, 1.818362846376, 3.501711405504, !- X,Y,Z Vertex 2 {m}
  11.8872, 2.621280042672, 3.501711405504, !- X,Y,Z Vertex 3 {m}
  11.8872, 2.621280042672, 4.572;         !- X,Y,Z Vertex 4 {m}

OS:Surface,
  {d0f3858b-2927-4c5e-9998-98b0007d4b2e}, !- Handle
  Wall17,                                 !- Name
  Wall,                                   !- Surface Type
  {7b5f739f-3cc6-4450-81c1-8a78ec1b8029}, !- Construction Name
  {d3d39da8-4ab4-4fe4-9ab7-1a1027f44923}, !- Space Name
  Outdoors,                               !- Outside Boundary Condition
  ,                                       !- Outside Boundary Condition Object
  SunExposed,                             !- Sun Exposure
  WindExposed,                            !- Wind Exposure
  ,                                       !- View Factor to Ground
  ,                                       !- Number of Vertices
  11.8872, 0, 4.8768,                     !- X,Y,Z Vertex 1 {m}
  11.8872, 0, 2.4384,                     !- X,Y,Z Vertex 2 {m}
  11.8872, 7.9248, 2.4384,                !- X,Y,Z Vertex 3 {m}
  11.8872, 7.9248, 4.8768;                !- X,Y,Z Vertex 4 {m}

OS:Material,
  {f6906d61-82d0-4b02-9132-6be11be17a52}, !- Handle
  FloorMass,                              !- Name
  Rough,                                  !- Roughness
  0.015875,                               !- Thickness {m}
  0.1154577,                              !- Conductivity {W/m-K}
  544.68,                                 !- Density {kg/m3}
  1214.23,                                !- Specific Heat {J/kg-K}
  0.9,                                    !- Thermal Absorptance
  0.6;                                    !- Solar Absorptance

OS:Surface,
  {3ffb3480-6cf3-4f53-8b3d-d7ca2c556fb8}, !- Handle
  Wall1,                                  !- Name
  Wall,                                   !- Surface Type
  {7bc2e9d9-3bd8-492e-b81d-d80af9ecf582}, !- Construction Name
  {37e82f08-1c15-417b-aa8a-6abe2518bafb}, !- Space Name
  ground,                                 !- Outside Boundary Condition
  ,                                       !- Outside Boundary Condition Object
  NoSun,                                  !- Sun Exposure
  NoWind,                                 !- Wind Exposure
  0,                                      !- View Factor to Ground
  ,                                       !- Number of Vertices
  0, 7.9248, 2.4384,                      !- X,Y,Z Vertex 1 {m}
  0, 7.9248, 0,                           !- X,Y,Z Vertex 2 {m}
  0, 0, 0,                                !- X,Y,Z Vertex 3 {m}
  0, 0, 2.4384;                           !- X,Y,Z Vertex 4 {m}

OS:Construction,
  {7bc2e9d9-3bd8-492e-b81d-d80af9ecf582}, !- Handle
  GrndInsFinWall,                         !- Name
  {f1a863c6-5de6-4a7b-b81d-26fbc12bef56}, !- Surface Rendering Name
  {408872a7-cb2b-40ec-b537-0d0d0dc4ef14}, !- Layer 1
  {274e9689-1f3a-4c3d-bede-6ee04fa3cc11}, !- Layer 2
  {5b680eba-3895-4d0d-8a5b-507327d6af18}, !- Layer 3
  {bb7e86b2-b179-40e1-9465-2b9695183547}, !- Layer 4
  {a611cb8e-1229-450e-ae97-6392d3034632}; !- Layer 5

OS:Material:NoMass,
  {408872a7-cb2b-40ec-b537-0d0d0dc4ef14}, !- Handle
  FBaseWall-FicR,                         !- Name
  Rough,                                  !- Roughness
  0.145662742196423;                      !- Thermal Resistance {m2-K/W}

OS:Material,
  {274e9689-1f3a-4c3d-bede-6ee04fa3cc11}, !- Handle
  Soil-12in,                              !- Name
  Rough,                                  !- Roughness
  0.3048,                                 !- Thickness {m}
  1.731,                                  !- Conductivity {W/m-K}
  1842.3,                                 !- Density {kg/m3}
  418.7;                                  !- Specific Heat {J/kg-K}

OS:Material,
  {5b680eba-3895-4d0d-8a5b-507327d6af18}, !- Handle
  Concrete-8in,                           !- Name
  Rough,                                  !- Roughness
  0.2032,                                 !- Thickness {m}
  1.3114056,                              !- Conductivity {W/m-K}
  2242.8,                                 !- Density {kg/m3}
  837.4,                                  !- Specific Heat {J/kg-K}
  0.9;                                    !- Thermal Absorptance

OS:Material,
  {bb7e86b2-b179-40e1-9465-2b9695183547}, !- Handle
  FBaseWallIns,                           !- Name
  Rough,                                  !- Roughness
  0.025908,                               !- Thickness {m}
  0.029427,                               !- Conductivity {W/m-K}
  32.04,                                  !- Density {kg/m3}
  1214.23;                                !- Specific Heat {J/kg-K}

OS:ThermalZone,
  {270363c4-6471-4cf3-be55-ce96ceb11db9}, !- Handle
  finishedbasement Thermal Zone,          !- Name
  1,                                      !- Multiplier
  2.4384,                                 !- Ceiling Height {m}
  229.706262864,                          !- Volume {m3}
  ,                                       !- Floor Area {m2}
  ,                                       !- Zone Inside Convection Algorithm
  ,                                       !- Zone Outside Convection Algorithm
  ,                                       !- Zone Conditioning Equipment List Name
  {53ee86ed-b843-499e-812a-934547701407}, !- Zone Air Inlet Port List
  {b3143f1f-60ad-4bb6-a508-c963e3f74bfd}, !- Zone Air Exhaust Port List
  {8dadc49a-2344-4f34-b26b-1c4510a1c82c}, !- Zone Air Node Name
  ,                                       !- Zone Return Air Node Name
  ,                                       !- Primary Daylighting Control Name
  ,                                       !- Fraction of Zone Controlled by Primary Daylighting Control
  ,                                       !- Secondary Daylighting Control Name
  ,                                       !- Fraction of Zone Controlled by Secondary Daylighting Control
  ,                                       !- Illuminance Map Name
  {9337e426-874a-4d6f-8a15-b9aa5ae7c7ae}, !- Group Rendering Name
  ,                                       !- Thermostat Name
  No;                                     !- Use Ideal Air Loads

OS:Node,
  {f884917d-82e1-499f-bebf-c11df3aa99a4}, !- Handle
  {149a4762-5db8-453f-8389-c598d2809bec}, !- Name
  {8dadc49a-2344-4f34-b26b-1c4510a1c82c}, !- Inlet Port
  ;                                       !- Outlet Port

OS:Connection,
  {8dadc49a-2344-4f34-b26b-1c4510a1c82c}, !- Handle
  {5d60be90-d3ce-4805-94b0-2f757077445c}, !- Name
  {270363c4-6471-4cf3-be55-ce96ceb11db9}, !- Source Object
  11,                                     !- Outlet Port
  {f884917d-82e1-499f-bebf-c11df3aa99a4}, !- Target Object
  2;                                      !- Inlet Port

OS:PortList,
  {53ee86ed-b843-499e-812a-934547701407}, !- Handle
  {b1df8390-83bd-40af-960b-c75d27009e9d}, !- Name
  {270363c4-6471-4cf3-be55-ce96ceb11db9}; !- HVAC Component

OS:PortList,
  {b3143f1f-60ad-4bb6-a508-c963e3f74bfd}, !- Handle
  {c19c2a6c-014a-4325-8b01-cb335807eb9e}, !- Name
  {270363c4-6471-4cf3-be55-ce96ceb11db9}; !- HVAC Component

OS:Sizing:Zone,
  {81019b38-5898-40c1-88c4-d79c61ea366e}, !- Handle
  {270363c4-6471-4cf3-be55-ce96ceb11db9}, !- Zone or ZoneList Name
  14,                                     !- Zone Cooling Design Supply Air Temperature {C}
  40,                                     !- Zone Heating Design Supply Air Temperature {C}
  0.0085,                                 !- Zone Cooling Design Supply Air Humidity Ratio {kg-H2O/kg-air}
  0.008,                                  !- Zone Heating Design Supply Air Humidity Ratio {kg-H2O/kg-air}
  ,                                       !- Zone Heating Sizing Factor
  ,                                       !- Zone Cooling Sizing Factor
  DesignDay,                              !- Cooling Design Air Flow Method
  ,                                       !- Cooling Design Air Flow Rate {m3/s}
  ,                                       !- Cooling Minimum Air Flow per Zone Floor Area {m3/s-m2}
  ,                                       !- Cooling Minimum Air Flow {m3/s}
  ,                                       !- Cooling Minimum Air Flow Fraction
  DesignDay,                              !- Heating Design Air Flow Method
  ,                                       !- Heating Design Air Flow Rate {m3/s}
  ,                                       !- Heating Maximum Air Flow per Zone Floor Area {m3/s-m2}
  ,                                       !- Heating Maximum Air Flow {m3/s}
  ,                                       !- Heating Maximum Air Flow Fraction
  ,                                       !- Design Zone Air Distribution Effectiveness in Cooling Mode
  ;                                       !- Design Zone Air Distribution Effectiveness in Heating Mode

OS:ZoneHVAC:EquipmentList,
  {83ecb983-c44e-4f40-aebb-35b72275d547}, !- Handle
  {c655cdc6-84eb-4dde-a82d-e22a5e2d0070}, !- Name
  {270363c4-6471-4cf3-be55-ce96ceb11db9}; !- Thermal Zone

OS:Space,
  {37e82f08-1c15-417b-aa8a-6abe2518bafb}, !- Handle
  finishedbasement,                       !- Name
  {f3e68755-77f7-4a57-bbe3-295f677d3286}, !- Space Type Name
  ,                                       !- Default Construction Set Name
  ,                                       !- Default Schedule Set Name
  0,                                      !- Direction of Relative North {deg}
  -5.9436,                                !- X Origin {m}
  -0.9144,                                !- Y Origin {m}
  -2.4384,                                !- Z Origin {m}
  ,                                       !- Building Story Name
  {270363c4-6471-4cf3-be55-ce96ceb11db9}, !- Thermal Zone Name
  ,                                       !- Part of Total Floor Area
  ;                                       !- Design Specification Outdoor Air Object Name

OS:Construction,
  {e8ab8d8c-e385-4e34-b20b-86257d5d6714}, !- Handle
  RevUnfinInsFinFloor,                    !- Name
  {a24e4027-b2e5-405c-a489-c7ccf37c4d74}, !- Surface Rendering Name
  {eda98406-a7ad-4a3b-8fc4-220073b1f251}; !- Layer 1

OS:Material,
  {eda98406-a7ad-4a3b-8fc4-220073b1f251}, !- Handle
  CarpetBareLayer,                        !- Name
  Rough,                                  !- Roughness
  0.0127,                                 !- Thickness {m}
  0.0433443509615385,                     !- Conductivity {W/m-K}
  54.468,                                 !- Density {kg/m3}
  1339.84,                                !- Specific Heat {J/kg-K}
  0.9,                                    !- Thermal Absorptance
  0.9;                                    !- Solar Absorptance

OS:Construction,
  {1643c645-5c1a-4236-9778-6a800f1c8686}, !- Handle
  GrndUninsFinBFloor,                     !- Name
  {86fe12e0-f948-4ccc-868b-28421ca99363}, !- Surface Rendering Name
  {f7cd70e8-b401-466f-b2f5-90e112f1402a}, !- Layer 1
  {274e9689-1f3a-4c3d-bede-6ee04fa3cc11}, !- Layer 2
  {6f42d782-d39d-4f7d-aedf-9e95bab6617c}; !- Layer 3

OS:Material:NoMass,
  {f7cd70e8-b401-466f-b2f5-90e112f1402a}, !- Handle
  FBaseFloor-FicR,                        !- Name
  Rough,                                  !- Roughness
  176.1;                                  !- Thermal Resistance {m2-K/W}

OS:Material,
  {6f42d782-d39d-4f7d-aedf-9e95bab6617c}, !- Handle
  Concrete-4in,                           !- Name
  Rough,                                  !- Roughness
  0.1016,                                 !- Thickness {m}
  1.3114056,                              !- Conductivity {W/m-K}