
OS:Version,
  {7ed8e066-fbd7-4d82-a665-4cc0f0a677df}, !- Handle
  1.3.1;                                  !- Version Identifier

OS:Construction,
  {f72ec024-c123-4422-9deb-e977af3c3a92}, !- Handle
  ExtInsFinWall,                          !- Name
  ,                                       !- Surface Rendering Name
  {ca6944fe-66ce-4c7d-8e7b-9eb88f268eba}, !- Layer 1
  {778d8ffc-5972-46b6-8361-568c1e5252f5}, !- Layer 2
  {71532b41-2257-4e73-88b8-6f49ed39567a}, !- Layer 3
  {e4bb4c2f-9e3a-4073-93fe-ab1b9f5b6d5d}; !- Layer 4

OS:Material,
  {ca6944fe-66ce-4c7d-8e7b-9eb88f268eba}, !- Handle
  Exterior_Finish_Vinyl_Light,            !- Name
  Rough,                                  !- Roughness
  0.009525,                               !- Thickness {m}
  0.089435,                               !- Conductivity {W/m-K}
  177.822,                                !- Density {kg/m3}
  1046.75,                                !- Specific Heat {J/kg-K}
  0.9,                                    !- Thermal Absorptance
  0.3,                                    !- Solar Absorptance
  0.3;                                    !- Visible Absorptance

OS:Material,
  {e4bb4c2f-9e3a-4073-93fe-ab1b9f5b6d5d}, !- Handle
  GypsumBoard_1_2in,                      !- Name
  Rough,                                  !- Roughness
  0.0127,                                 !- Thickness {m}
  0.1602906,                              !- Conductivity {W/m-K}
  801,                                    !- Density {kg/m3}
  837.4;                                  !- Specific Heat {J/kg-K}

OS:Material,
  {778d8ffc-5972-46b6-8361-568c1e5252f5}, !- Handle
  CMU,                                    !- Name
  Rough,                                  !- Roughness
  0.2032,                                 !- Thickness {m}
  0.243058743084934,                      !- Conductivity {W/m-K}
  705.07224,                              !- Density {kg/m3}
  858.222742888303;                       !- Specific Heat {J/kg-K}

OS:Material,
  {71532b41-2257-4e73-88b8-6f49ed39567a}, !- Handle
  Furring,                                !- Name
  Rough,                                  !- Roughness
  0.0508,                                 !- Thickness {m}
  0.0367027872833333,                     !- Conductivity {W/m-K}
  110.3341455,                            !- Density {kg/m3}
  1154.52431712832;                       !- Specific Heat {J/kg-K}

