
OS:Version,
  {e47241db-6094-42bc-bc0f-34c186c64c50}, !- Handle
  1.3.1;                                  !- Version Identifier

OS:Construction,
  {d670cb36-fdc9-4e1a-91d6-91e1c461ea8a}, !- Handle
  ExtInsFinWall,                          !- Name
  ,                                       !- Surface Rendering Name
  {28af4cf7-7d2c-4c86-b3fe-cfb406426b21}, !- Layer 1
  {46865daa-9380-4702-a138-257d2070685c}, !- Layer 2
  {d898a405-1c83-4b91-842f-f081c553a278}, !- Layer 3
  {523ee9c7-b4c3-4c58-8b22-b0cc93f3e292}; !- Layer 4

OS:Material,
  {28af4cf7-7d2c-4c86-b3fe-cfb406426b21}, !- Handle
  Exterior_Finish_Vinyl_Light,            !- Name
  Rough,                                  !- Roughness
  0.009525,                               !- Thickness {m}
  0.089435,                               !- Conductivity {W/m-K}
  177.822,                                !- Density {kg/m3}
  1046.75,                                !- Specific Heat {J/kg-K}
  0.9,                                    !- Thermal Absorptance
  0.3,                                    !- Solar Absorptance
  0.3;                                    !- Visible Absorptance

OS:Material,
  {46865daa-9380-4702-a138-257d2070685c}, !- Handle
  Plywood_1_2in,                          !- Name
  Rough,                                  !- Roughness
  0.0127,                                 !- Thickness {m}
  0.1154577,                              !- Conductivity {W/m-K}
  512.64,                                 !- Density {kg/m3}
  1214.23;                                !- Specific Heat {J/kg-K}

OS:Material,
  {523ee9c7-b4c3-4c58-8b22-b0cc93f3e292}, !- Handle
  GypsumBoard_1_2in,                      !- Name
  Rough,                                  !- Roughness
  0.0127,                                 !- Thickness {m}
  0.1602906,                              !- Conductivity {W/m-K}
  801,                                    !- Density {kg/m3}
  837.4;                                  !- Specific Heat {J/kg-K}

OS:Material,
  {d898a405-1c83-4b91-842f-f081c553a278}, !- Handle
  StudandCavity,                          !- Name
  Rough,                                  !- Roughness
  0.0889,                                 !- Thickness {m}
  0.338221080142457,                      !- Conductivity {W/m-K}
  129.053221388677,                       !- Density {kg/m3}
  1212.78101720276;                       !- Specific Heat {J/kg-K}

