
OS:Version,
  {0baf0f80-38a1-445f-adb5-429bd73eb26e}, !- Handle
  1.3.1;                                  !- Version Identifier

OS:Construction,
  {cabc1857-8ebd-477f-8f05-89ceca3616d6}, !- Handle
  ExtInsFinWall,                          !- Name
  ,                                       !- Surface Rendering Name
  {9032abfb-ef28-499a-8af0-86798af9e6f0}, !- Layer 1
  {c260f1ce-1377-4f4d-9cb5-ae746a465cb7}, !- Layer 2
  {0bf5b2e7-8c46-481e-9cef-4b5fcd85955f}, !- Layer 3
  {9bad7aa3-7fd3-4517-8579-dce29b14bd66}, !- Layer 4
  {9777df10-7603-4bf8-bb90-2b45cee1c965}, !- Layer 5
  {603a5ded-99c0-42ff-845d-bb2239fcdba8}; !- Layer 6

OS:Material,
  {9032abfb-ef28-499a-8af0-86798af9e6f0}, !- Handle
  Exterior_Finish_Vinyl_Light,            !- Name
  Rough,                                  !- Roughness
  0.009525,                               !- Thickness {m}
  0.089435,                               !- Conductivity {W/m-K}
  177.822,                                !- Density {kg/m3}
  1046.75,                                !- Specific Heat {J/kg-K}
  0.9,                                    !- Thermal Absorptance
  0.3,                                    !- Solar Absorptance
  0.3;                                    !- Visible Absorptance

OS:Material,
  {c260f1ce-1377-4f4d-9cb5-ae746a465cb7}, !- Handle
  Plywood_1_2in,                          !- Name
  Rough,                                  !- Roughness
  0.0127,                                 !- Thickness {m}
  0.1154577,                              !- Conductivity {W/m-K}
  512.64,                                 !- Density {kg/m3}
  1214.23;                                !- Specific Heat {J/kg-K}

OS:Material,
  {603a5ded-99c0-42ff-845d-bb2239fcdba8}, !- Handle
  GypsumBoard_1_2in,                      !- Name
  Rough,                                  !- Roughness
  0.0127,                                 !- Thickness {m}
  0.1602906,                              !- Conductivity {W/m-K}
  801,                                    !- Density {kg/m3}
  837.4;                                  !- Specific Heat {J/kg-K}

OS:Material,
  {0bf5b2e7-8c46-481e-9cef-4b5fcd85955f}, !- Handle
  StudandCavity,                          !- Name
  Rough,                                  !- Roughness
  0.0889,                                 !- Thickness {m}
  0.0576719384502865,                     !- Conductivity {W/m-K}
  148.39326,                              !- Density {kg/m3}
  1174.03696966425;                       !- Specific Heat {J/kg-K}

OS:Material,
  {9bad7aa3-7fd3-4517-8579-dce29b14bd66}, !- Handle
  Cavity,                                 !- Name
  Rough,                                  !- Roughness
  0.0889,                                 !- Thickness {m}
  0.0568534229772727,                     !- Conductivity {W/m-K}
  119.206822499999,                       !- Density {kg/m3}
  1160.18704077004;                       !- Specific Heat {J/kg-K}

OS:Material,
  {9777df10-7603-4bf8-bb90-2b45cee1c965}, !- Handle
  StudandCavity 1,                        !- Name
  Rough,                                  !- Roughness
  0.0889,                                 !- Thickness {m}
  0.0576719384502865,                     !- Conductivity {W/m-K}
  148.39326,                              !- Density {kg/m3}
  1174.03696966425;                       !- Specific Heat {J/kg-K}

