
OS:Version,
  {6c421e4c-06f6-4ee8-8e04-ecf8a09e6f58}, !- Handle
  1.3.1;                                  !- Version Identifier

OS:Construction,
  {958b624d-96ef-4a96-a4f6-60440938f602}, !- Handle
  CSRimJoist,                             !- Name
  ,                                       !- Surface Rendering Name
  {621cb8cd-4a55-427d-833e-740cc16499f1}, !- Layer 1
  {dcb798d2-d677-4479-a4b5-e62f974947da}, !- Layer 2
  {3dcad0fc-15c1-43c5-b099-2a5f568a0451}; !- Layer 3

OS:Material,
  {621cb8cd-4a55-427d-833e-740cc16499f1}, !- Handle
  Exterior_Finish_Vinyl_Light,            !- Name
  Rough,                                  !- Roughness
  0.009525,                               !- Thickness {m}
  0.089435,                               !- Conductivity {W/m-K}
  177.822,                                !- Density {kg/m3}
  1046.75,                                !- Specific Heat {J/kg-K}
  0.9,                                    !- Thermal Absorptance
  0.3,                                    !- Solar Absorptance
  0.3;                                    !- Visible Absorptance

OS:Material,
  {dcb798d2-d677-4479-a4b5-e62f974947da}, !- Handle
  Plywood_3_2in,                          !- Name
  Rough,                                  !- Roughness
  0.0381,                                 !- Thickness {m}
  0.1154577,                              !- Conductivity {W/m-K}
  512.64,                                 !- Density {kg/m3}
  1214.23;                                !- Specific Heat {J/kg-K}

OS:Material,
  {3dcad0fc-15c1-43c5-b099-2a5f568a0451}, !- Handle
  CSJoistandCavity,                       !- Name
  Rough,                                  !- Roughness
  0.23495,                                !- Thickness {m}
  0.584197590381047,                      !- Conductivity {W/m-K}
  41.0839868271477,                       !- Density {kg/m3}
  1208.63462554837;                       !- Specific Heat {J/kg-K}

