
OS:Version,
  {1a5d3bd8-66f1-4bd4-b419-40d7ca18d6f2}, !- Handle
  1.3.1;                                  !- Version Identifier

OS:Construction,
  {a0a107b9-9a4e-4cb7-8400-afc977fe8a41}, !- Handle
  GrndInsUnfinCSWall,                     !- Name
  ,                                       !- Surface Rendering Name
  {6711b305-275c-46a6-8554-5314276b17ec}, !- Layer 1
  {17859d83-8fa9-44ce-b311-9f0ff8703f23}, !- Layer 2
  {0301e607-1695-46da-a83b-07cd58067439}; !- Layer 3

OS:Material,
  {6711b305-275c-46a6-8554-5314276b17ec}, !- Handle
  Soil_12in,                              !- Name
  Rough,                                  !- Roughness
  0.3048,                                 !- Thickness {m}
  1.731,                                  !- Conductivity {W/m-K}
  1842.3,                                 !- Density {kg/m3}
  418.7;                                  !- Specific Heat {J/kg-K}

OS:Material,
  {17859d83-8fa9-44ce-b311-9f0ff8703f23}, !- Handle
  Concrete_8in,                           !- Name
  Rough,                                  !- Roughness
  0.2032,                                 !- Thickness {m}
  1.3114056,                              !- Conductivity {W/m-K}
  2242.79999999999,                       !- Density {kg/m3}
  837.4;                                  !- Specific Heat {J/kg-K}

OS:Material,
  {0301e607-1695-46da-a83b-07cd58067439}, !- Handle
  CWallIns,                               !- Name
  Rough,                                  !- Roughness
  0.1016,                                 !- Thickness {m}
  0.02885,                                !- Conductivity {W/m-K}
  32.04,                                  !- Density {kg/m3}
  1214.23;                                !- Specific Heat {J/kg-K}

