
OS:Version,
  {8a3c3ff1-16c6-4d99-b61d-42ee6caa4c8e}, !- Handle
  1.3.1;                                  !- Version Identifier

OS:Construction,
  {2d368c90-f36e-4267-9ff7-e11b69a43c9f}, !- Handle
  Triple-Pane Low-Gain Low-E Insulated Frame Argon Fill, !- Name
  ,                                       !- Surface Rendering Name
  {a107c191-0caf-42f7-a423-4c8b743b873c}; !- Layer 1

OS:WindowMaterial:SimpleGlazingSystem,
  {a107c191-0caf-42f7-a423-4c8b743b873c}, !- Handle
  Triple-Pane Glass,                      !- Name
  0.962683417102722,                      !- U-Factor {W/m2-K}
  0.270721380248395;                      !- Solar Heat Gain Coefficient

OS:StandardsInformation:Construction,
  {22ef4ae6-bb1c-474b-8421-ee8ac645f88e}, !- Handle
  {2d368c90-f36e-4267-9ff7-e11b69a43c9f}, !- Construction Name
  ExteriorWindow;                         !- Intended Surface Type

OS:ComponentData,
  {2eec119c-8e36-4fee-aef5-98a4e07d97f8}, !- Handle
  Component Data 1,                       !- Name
  {4caa4385-fd05-4536-9f18-8f30fd1f2625}, !- UUID
  {b230e7cf-c76c-48f6-8e5f-c70b8b0acb55}, !- Version UUID
  1406055301,                             !- Creation Timestamp
  1406055301,                             !- Version Timestamp
  {2d368c90-f36e-4267-9ff7-e11b69a43c9f}, !- Name of Object 1
  {a107c191-0caf-42f7-a423-4c8b743b873c}, !- Name of Object 2
  {22ef4ae6-bb1c-474b-8421-ee8ac645f88e}; !- Name of Object 3

