
OS:Version,
  {f90dc544-168e-4a07-bce4-9e961491c462}, !- Handle
  1.3.1;                                  !- Version Identifier

OS:Construction,
  {6765e024-40c9-402a-ab24-690713c52f96}, !- Handle
  GrndUninsUnfinCSFloor,                  !- Name
  ,                                       !- Surface Rendering Name
  {eb5cd8be-21cf-4fdf-820b-46281dd0860f}, !- Layer 1
  {aabb48a7-3068-45d8-9474-8cb2085de659}; !- Layer 2

OS:Material,
  {aabb48a7-3068-45d8-9474-8cb2085de659}, !- Handle
  Soil_12in,                              !- Name
  Rough,                                  !- Roughness
  0.3048,                                 !- Thickness {m}
  1.731,                                  !- Conductivity {W/m-K}
  1842.3,                                 !- Density {kg/m3}
  418.7;                                  !- Specific Heat {J/kg-K}

OS:Material:NoMass,
  {eb5cd8be-21cf-4fdf-820b-46281dd0860f}, !- Handle
  CFloor_FicR_Wall_R_19_Fiberglass_Batt,  !- Name
  Rough,                                  !- Roughness
  4.54000080169514;                       !- Thermal Resistance {m2-K/W}

