
OS:Version,
  {26a3fa9c-549a-4024-9ba0-fa8bd065deb5}, !- Handle
  1.3.1;                                  !- Version Identifier

OS:Construction,
  {100ad228-656d-418e-9fc0-2c76cb396b5f}, !- Handle
  Double-Pane Medium-Gain Low-E Insulated Frame Air Fill, !- Name
  ,                                       !- Surface Rendering Name
  {a18a790f-89b3-4820-805e-c64ad29b15b3}; !- Layer 1

OS:WindowMaterial:SimpleGlazingSystem,
  {a18a790f-89b3-4820-805e-c64ad29b15b3}, !- Handle
  Double-Pane Glass,                      !- Name
  1.7033285181319,                        !- U-Factor {W/m2-K}
  0.461302152482273;                      !- Solar Heat Gain Coefficient

OS:StandardsInformation:Construction,
  {47b50777-c020-4c4b-896a-00630f987bac}, !- Handle
  {100ad228-656d-418e-9fc0-2c76cb396b5f}, !- Construction Name
  ExteriorWindow;                         !- Intended Surface Type

OS:ComponentData,
  {436e7eba-6e90-450d-9d65-7e1f4bc3d834}, !- Handle
  Component Data 1,                       !- Name
  {3f3e74f0-cdd9-4241-8883-0e3efe2597ad}, !- UUID
  {b9deeed8-abae-45f3-833a-60e0ba77761a}, !- Version UUID
  1406055301,                             !- Creation Timestamp
  1406055301,                             !- Version Timestamp
  {100ad228-656d-418e-9fc0-2c76cb396b5f}, !- Name of Object 1
  {a18a790f-89b3-4820-805e-c64ad29b15b3}, !- Name of Object 2
  {47b50777-c020-4c4b-896a-00630f987bac}; !- Name of Object 3

