
OS:Version,
  {313169a1-a388-4615-84a4-d76be295ab5c}, !- Handle
  1.3.1;                                  !- Version Identifier

OS:WindowMaterial:SimpleGlazingSystem,
  {b3aedf8c-e52e-4d9c-8ffd-f349e0c3531c}, !- Handle
  Double-Pane Glass,                      !- Name
  1.7033285181319,                        !- U-Factor {W/m2-K}
  0.461302152482273;                      !- Solar Heat Gain Coefficient

OS:Construction,
  {233f7993-9122-4f0a-a7f9-d40511be025d}, !- Handle
  Double-Pane Medium-Gain Low-E Insulated Frame Air Fill, !- Name
  ,                                       !- Surface Rendering Name
  {b3aedf8c-e52e-4d9c-8ffd-f349e0c3531c}; !- Layer 1

OS:StandardsInformation:Construction,
  {fb090844-0569-4a28-82a6-de258ccbc22e}, !- Handle
  {233f7993-9122-4f0a-a7f9-d40511be025d}, !- Construction Name
  ExteriorWindow;                         !- Intended Surface Type

