
OS:Version,
  {70928467-dacc-477e-b483-69ca7c39698e}, !- Handle
  1.9.0;                                  !- Version Identifier

OS:Site,
  {f9b64c61-ff0d-42be-918c-0ad04cb73014}, !- Handle
  Chicago Ohare Intl Ap,                  !- Name
  41.98,                                  !- Latitude {deg}
  -87.92,                                 !- Longitude {deg}
  -6,                                     !- Time Zone {hr}
  201,                                    !- Elevation {m}
  Suburbs;                                !- Terrain

OS:SimulationControl,
  {e2bc5148-1655-46fc-b7dc-e9e34080b811}, !- Handle
  Yes,                                    !- Do Zone Sizing Calculation
  No,                                     !- Do System Sizing Calculation
  Yes,                                    !- Do Plant Sizing Calculation
  No,                                     !- Run Simulation for Sizing Periods
  Yes,                                    !- Run Simulation for Weather File Run Periods
  0.05,                                   !- Loads Convergence Tolerance Value
  0.05,                                   !- Temperature Convergence Tolerance Value {deltaC}
  FullExterior,                           !- Solar Distribution
  50;                                     !- Maximum Number of Warmup Days

OS:Surface,
  {ad1b37e3-ccbb-4c52-937e-1b518b025b8e}, !- Handle
  Wall11,                                 !- Name
  Wall,                                   !- Surface Type
  ,                                       !- Construction Name
  {78fd69cc-ec4e-431c-987a-45498419c80f}, !- Space Name
  Outdoors,                               !- Outside Boundary Condition
  ,                                       !- Outside Boundary Condition Object
  SunExposed,                             !- Sun Exposure
  WindExposed,                            !- Wind Exposure
  ,                                       !- View Factor to Ground
  ,                                       !- Number of Vertices
  11.8872, 3.048, 2.4384,                 !- X,Y,Z Vertex 1 {m}
  11.8872, 3.048, 0,                      !- X,Y,Z Vertex 2 {m}
  11.8872, 7.9248, 0,                     !- X,Y,Z Vertex 3 {m}
  11.8872, 7.9248, 2.4384;                !- X,Y,Z Vertex 4 {m}

OS:ThermalZone,
  {c625041c-9f89-4467-b156-a263b2ea92cf}, !- Handle
  living Thermal Zone,                    !- Name
  1,                                      !- Multiplier
  2.4384,                                 !- Ceiling Height {m}
  184.399307664,                          !- Volume {m3}
  ,                                       !- Floor Area {m2}
  ,                                       !- Zone Inside Convection Algorithm
  ,                                       !- Zone Outside Convection Algorithm
  ,                                       !- Zone Conditioning Equipment List Name
  {1af6449d-f2f4-4d8b-8a53-c28e20d2f793}, !- Zone Air Inlet Port List
  {54e6ef09-a766-4289-a299-13640d04d23f}, !- Zone Air Exhaust Port List
  {60b6e79b-8f48-4c75-ba0f-58d939b196d9}, !- Zone Air Node Name
  ,                                       !- Zone Return Air Node Name
  ,                                       !- Primary Daylighting Control Name
  ,                                       !- Fraction of Zone Controlled by Primary Daylighting Control
  ,                                       !- Secondary Daylighting Control Name
  ,                                       !- Fraction of Zone Controlled by Secondary Daylighting Control
  ,                                       !- Illuminance Map Name
  {f7f58c67-3588-45e7-837b-2592198af3af}, !- Group Rendering Name
  ,                                       !- Thermostat Name
  No;                                     !- Use Ideal Air Loads

OS:Node,
  {a9bb829a-6612-4873-aa62-8f686501d7b2}, !- Handle
  {68a3741a-9a30-4149-9030-bd38403645b2}, !- Name
  {60b6e79b-8f48-4c75-ba0f-58d939b196d9}, !- Inlet Port
  ;                                       !- Outlet Port

OS:Connection,
  {60b6e79b-8f48-4c75-ba0f-58d939b196d9}, !- Handle
  {85f9f619-96c7-4024-a498-291410bfea1b}, !- Name
  {c625041c-9f89-4467-b156-a263b2ea92cf}, !- Source Object
  11,                                     !- Outlet Port
  {a9bb829a-6612-4873-aa62-8f686501d7b2}, !- Target Object
  2;                                      !- Inlet Port

OS:PortList,
  {1af6449d-f2f4-4d8b-8a53-c28e20d2f793}, !- Handle
  {70e96f9c-cc0d-4987-b38e-dfee5b07a80c}, !- Name
  {c625041c-9f89-4467-b156-a263b2ea92cf}; !- HVAC Component

OS:PortList,
  {54e6ef09-a766-4289-a299-13640d04d23f}, !- Handle
  {55d3aafc-9ea2-4bbb-8925-72394aab7b4a}, !- Name
  {c625041c-9f89-4467-b156-a263b2ea92cf}; !- HVAC Component

OS:Sizing:Zone,
  {878b8df2-798a-4620-9073-6e2731d2120e}, !- Handle
  {c625041c-9f89-4467-b156-a263b2ea92cf}, !- Zone or ZoneList Name
  14,                                     !- Zone Cooling Design Supply Air Temperature {C}
  40,                                     !- Zone Heating Design Supply Air Temperature {C}
  0.0085,                                 !- Zone Cooling Design Supply Air Humidity Ratio {kg-H2O/kg-air}
  0.008,                                  !- Zone Heating Design Supply Air Humidity Ratio {kg-H2O/kg-air}
  ,                                       !- Zone Heating Sizing Factor
  ,                                       !- Zone Cooling Sizing Factor
  DesignDay,                              !- Cooling Design Air Flow Method
  ,                                       !- Cooling Design Air Flow Rate {m3/s}
  ,                                       !- Cooling Minimum Air Flow per Zone Floor Area {m3/s-m2}
  ,                                       !- Cooling Minimum Air Flow {m3/s}
  ,                                       !- Cooling Minimum Air Flow Fraction
  DesignDay,                              !- Heating Design Air Flow Method
  ,                                       !- Heating Design Air Flow Rate {m3/s}
  ,                                       !- Heating Maximum Air Flow per Zone Floor Area {m3/s-m2}
  ,                                       !- Heating Maximum Air Flow {m3/s}
  ,                                       !- Heating Maximum Air Flow Fraction
  ,                                       !- Design Zone Air Distribution Effectiveness in Cooling Mode
  ;                                       !- Design Zone Air Distribution Effectiveness in Heating Mode

OS:ZoneHVAC:EquipmentList,
  {82a08b83-1af0-41ab-b0f1-41a32880a7e0}, !- Handle
  {7d3179de-fd0c-4a62-b9fc-dab978157a6b}, !- Name
  {c625041c-9f89-4467-b156-a263b2ea92cf}; !- Thermal Zone

OS:Space,
  {78fd69cc-ec4e-431c-987a-45498419c80f}, !- Handle
  living,                                 !- Name
  {3a812c18-01f6-4f61-97c4-f44f202e2f67}, !- Space Type Name
  ,                                       !- Default Construction Set Name
  ,                                       !- Default Schedule Set Name
  0,                                      !- Direction of Relative North {deg}
  -5.9436,                                !- X Origin {m}
  -2.4384,                                !- Y Origin {m}
  0,                                      !- Z Origin {m}
  ,                                       !- Building Story Name
  {c625041c-9f89-4467-b156-a263b2ea92cf}, !- Thermal Zone Name
  ,                                       !- Part of Total Floor Area
  ;                                       !- Design Specification Outdoor Air Object Name

OS:Surface,
  {89af1c74-4645-4fba-8e1e-1b63657eaef4}, !- Handle
  Wall13,                                 !- Name
  Wall,                                   !- Surface Type
  ,                                       !- Construction Name
  {07579b4d-0c82-4c7c-99e3-52cd7edd9ce6}, !- Space Name
  Outdoors,                               !- Outside Boundary Condition
  ,                                       !- Outside Boundary Condition Object
  SunExposed,                             !- Sun Exposure
  WindExposed,                            !- Wind Exposure
  ,                                       !- View Factor to Ground
  ,                                       !- Number of Vertices
  0, 3.048, 2.4384,                       !- X,Y,Z Vertex 1 {m}
  0, 3.048, 0,                            !- X,Y,Z Vertex 2 {m}
  0, 0, 0,                                !- X,Y,Z Vertex 3 {m}
  0, 0, 2.4384;                           !- X,Y,Z Vertex 4 {m}

OS:ThermalZone,
  {c6b09f5f-ede6-4a5f-ba76-9e4ba79f9f0a}, !- Handle
  garage Thermal Zone,                    !- Name
  1,                                      !- Multiplier
  4.2672,                                 !- Ceiling Height {m}
  181.2278208,                            !- Volume {m3}
  ,                                       !- Floor Area {m2}
  ,                                       !- Zone Inside Convection Algorithm
  ,                                       !- Zone Outside Convection Algorithm
  ,                                       !- Zone Conditioning Equipment List Name
  {93db6f1c-98ec-4093-be44-b8b27d8a53b8}, !- Zone Air Inlet Port List
  {cbb2f474-9c1c-454b-af73-9b1667443650}, !- Zone Air Exhaust Port List
  {5953e20f-6017-474b-b982-8b2c69b0161a}, !- Zone Air Node Name
  ,                                       !- Zone Return Air Node Name
  ,                                       !- Primary Daylighting Control Name
  ,                                       !- Fraction of Zone Controlled by Primary Daylighting Control
  ,                                       !- Secondary Daylighting Control Name
  ,                                       !- Fraction of Zone Controlled by Secondary Daylighting Control
  ,                                       !- Illuminance Map Name
  {b6306878-444c-4ccd-b793-b348e9f0c8d6}, !- Group Rendering Name
  ,                                       !- Thermostat Name
  No;                                     !- Use Ideal Air Loads

OS:Node,
  {e323b66c-1e03-4c4d-bb37-a8fac0bef8a8}, !- Handle
  {f7eca087-6df0-47e4-bbdb-d4a3c4aaf0c5}, !- Name
  {5953e20f-6017-474b-b982-8b2c69b0161a}, !- Inlet Port
  ;                                       !- Outlet Port

OS:Connection,
  {5953e20f-6017-474b-b982-8b2c69b0161a}, !- Handle
  {c57d67fe-e22b-41e3-90dd-46e93be8b747}, !- Name
  {c6b09f5f-ede6-4a5f-ba76-9e4ba79f9f0a}, !- Source Object
  11,                                     !- Outlet Port
  {e323b66c-1e03-4c4d-bb37-a8fac0bef8a8}, !- Target Object
  2;                                      !- Inlet Port

OS:PortList,
  {93db6f1c-98ec-4093-be44-b8b27d8a53b8}, !- Handle
  {7a89130e-a200-4937-91e5-dcb8a7c16d28}, !- Name
  {c6b09f5f-ede6-4a5f-ba76-9e4ba79f9f0a}; !- HVAC Component

OS:PortList,
  {cbb2f474-9c1c-454b-af73-9b1667443650}, !- Handle
  {0d856106-b003-483b-bacf-f3ba5eb9b2d5}, !- Name
  {c6b09f5f-ede6-4a5f-ba76-9e4ba79f9f0a}; !- HVAC Component

OS:Sizing:Zone,
  {2bcf0795-f847-4c01-855a-935f1d5a3675}, !- Handle
  {c6b09f5f-ede6-4a5f-ba76-9e4ba79f9f0a}, !- Zone or ZoneList Name
  14,                                     !- Zone Cooling Design Supply Air Temperature {C}
  40,                                     !- Zone Heating Design Supply Air Temperature {C}
  0.0085,                                 !- Zone Cooling Design Supply Air Humidity Ratio {kg-H2O/kg-air}
  0.008,                                  !- Zone Heating Design Supply Air Humidity Ratio {kg-H2O/kg-air}
  ,                                       !- Zone Heating Sizing Factor
  ,                                       !- Zone Cooling Sizing Factor
  DesignDay,                              !- Cooling Design Air Flow Method
  ,                                       !- Cooling Design Air Flow Rate {m3/s}
  ,                                       !- Cooling Minimum Air Flow per Zone Floor Area {m3/s-m2}
  ,                                       !- Cooling Minimum Air Flow {m3/s}
  ,                                       !- Cooling Minimum Air Flow Fraction
  DesignDay,                              !- Heating Design Air Flow Method
  ,                                       !- Heating Design Air Flow Rate {m3/s}
  ,                                       !- Heating Maximum Air Flow per Zone Floor Area {m3/s-m2}
  ,                                       !- Heating Maximum Air Flow {m3/s}
  ,                                       !- Heating Maximum Air Flow Fraction
  ,                                       !- Design Zone Air Distribution Effectiveness in Cooling Mode
  ;                                       !- Design Zone Air Distribution Effectiveness in Heating Mode

OS:ZoneHVAC:EquipmentList,
  {228c6618-0cf4-4918-80e1-98a2b1de7a85}, !- Handle
  {21a65a77-acf9-44b5-8228-cabe614cc376}, !- Name
  {c6b09f5f-ede6-4a5f-ba76-9e4ba79f9f0a}; !- Thermal Zone

OS:Space,
  {07579b4d-0c82-4c7c-99e3-52cd7edd9ce6}, !- Handle
  garage,                                 !- Name
  {eb8b9a29-caf6-493a-a4c5-4643259c4d06}, !- Space Type Name
  ,                                       !- Default Construction Set Name
  ,                                       !- Default Schedule Set Name
  0,                                      !- Direction of Relative North {deg}
  -0.1524,                                !- X Origin {m}
  -5.4864,                                !- Y Origin {m}
  0,                                      !- Z Origin {m}
  ,                                       !- Building Story Name
  {c6b09f5f-ede6-4a5f-ba76-9e4ba79f9f0a}, !- Thermal Zone Name
  ,                                       !- Part of Total Floor Area
  ;                                       !- Design Specification Outdoor Air Object Name

OS:Surface,
  {8c337b51-5b19-450c-a52a-f113b95449de}, !- Handle
  Roof3,                                  !- Name
  RoofCeiling,                            !- Surface Type
  ,                                       !- Construction Name
  {07579b4d-0c82-4c7c-99e3-52cd7edd9ce6}, !- Space Name
  Outdoors,                               !- Outside Boundary Condition
  ,                                       !- Outside Boundary Condition Object
  SunExposed,                             !- Sun Exposure
  WindExposed,                            !- Wind Exposure
  ,                                       !- View Factor to Ground
  ,                                       !- Number of Vertices
  3.048, 0, 4.2672,                       !- X,Y,Z Vertex 1 {m}
  6.096, 0, 2.7432,                       !- X,Y,Z Vertex 2 {m}
  6.096, 3.048, 2.7432,                   !- X,Y,Z Vertex 3 {m}
  3.048, 6.096, 4.2672;                   !- X,Y,Z Vertex 4 {m}

OS:Surface,
  {c0020541-ae2d-4022-9c8e-fa04f42ae569}, !- Handle
  Wall14,                                 !- Name
  Wall,                                   !- Surface Type
  ,                                       !- Construction Name
  {07579b4d-0c82-4c7c-99e3-52cd7edd9ce6}, !- Space Name
  Outdoors,                               !- Outside Boundary Condition
  ,                                       !- Outside Boundary Condition Object
  SunExposed,                             !- Sun Exposure
  WindExposed,                            !- Wind Exposure
  ,                                       !- View Factor to Ground
  ,                                       !- Number of Vertices
  0, 0, 2.4384,                           !- X,Y,Z Vertex 1 {m}
  0, 0, 0,                                !- X,Y,Z Vertex 2 {m}
  6.096, 0, 0,                            !- X,Y,Z Vertex 3 {m}
  6.096, 0, 2.4384;                       !- X,Y,Z Vertex 4 {m}

OS:SubSurface,
  {d6c98c43-acbf-48c7-a560-2d9c19dbfb01}, !- Handle
  Wall14-Door1,                           !- Name
  Door,                                   !- Sub Surface Type
  ,                                       !- Construction Name
  {c0020541-ae2d-4022-9c8e-fa04f42ae569}, !- Surface Name
  ,                                       !- Outside Boundary Condition Object
  0.5,                                    !- View Factor to Ground
  ,                                       !- Shading Control Name
  ,                                       !- Frame and Divider Name
  1,                                      !- Multiplier
  ,                                       !- Number of Vertices
  0.6096, 0, 2.1336,                      !- X,Y,Z Vertex 1 {m}
  0.6096, 0, 0,                           !- X,Y,Z Vertex 2 {m}
  2.7432, 0, 0,                           !- X,Y,Z Vertex 3 {m}
  2.7432, 0, 2.1336;                      !- X,Y,Z Vertex 4 {m}

OS:Surface,
  {cc6ec829-772f-4397-921d-347c48d634c7}, !- Handle
  Wall26,                                 !- Name
  Wall,                                   !- Surface Type
  ,                                       !- Construction Name
  {9d598398-1820-4a6a-8cc1-2023df090e93}, !- Space Name
  Outdoors,                               !- Outside Boundary Condition
  ,                                       !- Outside Boundary Condition Object
  SunExposed,                             !- Sun Exposure
  WindExposed,                            !- Wind Exposure
  ,                                       !- View Factor to Ground
  ,                                       !- Number of Vertices
  11.8872, 3.048, 2.4384,                 !- X,Y,Z Vertex 1 {m}
  11.8872, 3.048, 2.20345,                !- X,Y,Z Vertex 2 {m}
  11.8872, 7.9248, 2.20345,               !- X,Y,Z Vertex 3 {m}
  11.8872, 7.9248, 2.4384;                !- X,Y,Z Vertex 4 {m}

OS:ThermalZone,
  {a8e57107-1490-4d34-8d3f-9ee9ddd9a231}, !- Handle
  unfinishedbasement Thermal Zone,        !- Name
  1,                                      !- Multiplier
  2.4384,                                 !- Ceiling Height {m}
  184.399307664,                          !- Volume {m3}
  ,                                       !- Floor Area {m2}
  ,                                       !- Zone Inside Convection Algorithm
  ,                                       !- Zone Outside Convection Algorithm
  ,                                       !- Zone Conditioning Equipment List Name
  {1be8d7b2-4cc8-4901-a6a3-0025a0e08f6d}, !- Zone Air Inlet Port List
  {c8b25314-7e4c-4aea-81b9-9ecb75b2b78b}, !- Zone Air Exhaust Port List
  {d53ffc3d-07fd-4e1e-bcf6-86fb7602553d}, !- Zone Air Node Name
  ,                                       !- Zone Return Air Node Name
  ,                                       !- Primary Daylighting Control Name
  ,                                       !- Fraction of Zone Controlled by Primary Daylighting Control
  ,                                       !- Secondary Daylighting Control Name
  ,                                       !- Fraction of Zone Controlled by Secondary Daylighting Control
  ,                                       !- Illuminance Map Name
  {d61fa820-0879-45a1-b79c-5766c9224fa8}, !- Group Rendering Name
  ,                                       !- Thermostat Name
  No;                                     !- Use Ideal Air Loads

OS:Node,
  {992a0e73-66d3-4ee5-89d1-1a120efc4735}, !- Handle
  {fae4776f-1e82-40c4-a1c3-dd539edbaa27}, !- Name
  {d53ffc3d-07fd-4e1e-bcf6-86fb7602553d}, !- Inlet Port
  ;                                       !- Outlet Port

OS:Connection,
  {d53ffc3d-07fd-4e1e-bcf6-86fb7602553d}, !- Handle
  {8377f912-cc63-4727-a0e0-1f1b6af28e68}, !- Name
  {a8e57107-1490-4d34-8d3f-9ee9ddd9a231}, !- Source Object
  11,                                     !- Outlet Port
  {992a0e73-66d3-4ee5-89d1-1a120efc4735}, !- Target Object
  2;                                      !- Inlet Port

OS:PortList,
  {1be8d7b2-4cc8-4901-a6a3-0025a0e08f6d}, !- Handle
  {f34dcd47-86bd-4566-bea6-b3061720c9f0}, !- Name
  {a8e57107-1490-4d34-8d3f-9ee9ddd9a231}; !- HVAC Component

OS:PortList,
  {c8b25314-7e4c-4aea-81b9-9ecb75b2b78b}, !- Handle
  {e5540f2c-2d05-4312-ac4a-8ed5153dfe15}, !- Name
  {a8e57107-1490-4d34-8d3f-9ee9ddd9a231}; !- HVAC Component

OS:Sizing:Zone,
  {c638d923-f32b-47e4-9d47-fd7602d8b425}, !- Handle
  {a8e57107-1490-4d34-8d3f-9ee9ddd9a231}, !- Zone or ZoneList Name
  14,                                     !- Zone Cooling Design Supply Air Temperature {C}
  40,                                     !- Zone Heating Design Supply Air Temperature {C}
  0.0085,                                 !- Zone Cooling Design Supply Air Humidity Ratio {kg-H2O/kg-air}
  0.008,                                  !- Zone Heating Design Supply Air Humidity Ratio {kg-H2O/kg-air}
  ,                                       !- Zone Heating Sizing Factor
  ,                                       !- Zone Cooling Sizing Factor
  DesignDay,                              !- Cooling Design Air Flow Method
  ,                                       !- Cooling Design Air Flow Rate {m3/s}
  ,                                       !- Cooling Minimum Air Flow per Zone Floor Area {m3/s-m2}
  ,                                       !- Cooling Minimum Air Flow {m3/s}
  ,                                       !- Cooling Minimum Air Flow Fraction
  DesignDay,                              !- Heating Design Air Flow Method
  ,                                       !- Heating Design Air Flow Rate {m3/s}
  ,                                       !- Heating Maximum Air Flow per Zone Floor Area {m3/s-m2}
  ,                                       !- Heating Maximum Air Flow {m3/s}
  ,                                       !- Heating Maximum Air Flow Fraction
  ,                                       !- Design Zone Air Distribution Effectiveness in Cooling Mode
  ;                                       !- Design Zone Air Distribution Effectiveness in Heating Mode

OS:ZoneHVAC:EquipmentList,
  {fb9fa50c-d688-4be0-b768-e81df4567acb}, !- Handle
  {da0449da-0ad7-4838-914e-805272ddae82}, !- Name
  {a8e57107-1490-4d34-8d3f-9ee9ddd9a231}; !- Thermal Zone

OS:Space,
  {9d598398-1820-4a6a-8cc1-2023df090e93}, !- Handle
  unfinishedbasement,                     !- Name
  {a90b0b00-fb85-44b4-b205-f76137d65f04}, !- Space Type Name
  ,                                       !- Default Construction Set Name
  ,                                       !- Default Schedule Set Name
  0,                                      !- Direction of Relative North {deg}
  -5.9436,                                !- X Origin {m}
  -2.4384,                                !- Y Origin {m}
  -2.4384,                                !- Z Origin {m}
  ,                                       !- Building Story Name
  {a8e57107-1490-4d34-8d3f-9ee9ddd9a231}, !- Thermal Zone Name
  ,                                       !- Part of Total Floor Area
  ;                                       !- Design Specification Outdoor Air Object Name

OS:SubSurface,
  {7834cdfd-47c5-48bc-b405-d91f4cc062f1}, !- Handle
  Wall12-Window3,                         !- Name
  FixedWindow,                            !- Sub Surface Type
  ,                                       !- Construction Name
  {3d0604e7-828b-46d8-a6ad-dc3d030521aa}, !- Surface Name
  ,                                       !- Outside Boundary Condition Object
  0.5,                                    !- View Factor to Ground
  ,                                       !- Shading Control Name
  ,                                       !- Frame and Divider Name
  1,                                      !- Multiplier
  ,                                       !- Number of Vertices
  3.61696004064, 7.9248, 2.1336,          !- X,Y,Z Vertex 1 {m}
  3.61696004064, 7.9248, 0.9144,          !- X,Y,Z Vertex 2 {m}
  2.70256004064, 7.9248, 0.9144,          !- X,Y,Z Vertex 3 {m}
  2.70256004064, 7.9248, 2.1336;          !- X,Y,Z Vertex 4 {m}

OS:Surface,
  {3d0604e7-828b-46d8-a6ad-dc3d030521aa}, !- Handle
  Wall12,                                 !- Name
  Wall,                                   !- Surface Type
  ,                                       !- Construction Name
  {78fd69cc-ec4e-431c-987a-45498419c80f}, !- Space Name
  Outdoors,                               !- Outside Boundary Condition
  ,                                       !- Outside Boundary Condition Object
  SunExposed,                             !- Sun Exposure
  WindExposed,                            !- Wind Exposure
  ,                                       !- View Factor to Ground
  ,                                       !- Number of Vertices
  11.8872, 7.9248, 2.4384,                !- X,Y,Z Vertex 1 {m}
  11.8872, 7.9248, 0,                     !- X,Y,Z Vertex 2 {m}
  0, 7.9248, 0,                           !- X,Y,Z Vertex 3 {m}
  0, 7.9248, 2.4384;                      !- X,Y,Z Vertex 4 {m}

OS:SubSurface,
  {f3bbcba5-521e-4a12-83de-94919e792d61}, !- Handle
  Wall7-Window2,                          !- Name
  FixedWindow,                            !- Sub Surface Type
  ,                                       !- Construction Name
  {10c1c2a7-9e08-402a-981a-2a7b5650ae22}, !- Surface Name
  ,                                       !- Outside Boundary Condition Object
  0.5,                                    !- View Factor to Ground
  ,                                       !- Shading Control Name
  ,                                       !- Frame and Divider Name
  1,                                      !- Multiplier
  ,                                       !- Number of Vertices
  0, 3.93192, 2.1336,                     !- X,Y,Z Vertex 1 {m}
  0, 3.93192, 0.9144,                     !- X,Y,Z Vertex 2 {m}
  0, 3.01752, 0.9144,                     !- X,Y,Z Vertex 3 {m}
  0, 3.01752, 2.1336;                     !- X,Y,Z Vertex 4 {m}

OS:Surface,
  {10c1c2a7-9e08-402a-981a-2a7b5650ae22}, !- Handle
  Wall7,                                  !- Name
  Wall,                                   !- Surface Type
  ,                                       !- Construction Name
  {78fd69cc-ec4e-431c-987a-45498419c80f}, !- Space Name
  Outdoors,                               !- Outside Boundary Condition
  ,                                       !- Outside Boundary Condition Object
  SunExposed,                             !- Sun Exposure
  WindExposed,                            !- Wind Exposure
  ,                                       !- View Factor to Ground
  ,                                       !- Number of Vertices
  0, 7.9248, 2.4384,                      !- X,Y,Z Vertex 1 {m}
  0, 7.9248, 0,                           !- X,Y,Z Vertex 2 {m}
  0, 0, 0,                                !- X,Y,Z Vertex 3 {m}
  0, 0, 2.4384;                           !- X,Y,Z Vertex 4 {m}

OS:Surface,
  {557b9099-79e6-44e8-844b-2edae94b7fc5}, !- Handle
  Wall9,                                  !- Name
  Wall,                                   !- Surface Type
  ,                                       !- Construction Name
  {78fd69cc-ec4e-431c-987a-45498419c80f}, !- Space Name
  Surface,                                !- Outside Boundary Condition
  {4c956b37-1e16-474c-83f2-9bdaa8e4ae67}, !- Outside Boundary Condition Object
  NoSun,                                  !- Sun Exposure
  NoWind,                                 !- Wind Exposure
  0,                                      !- View Factor to Ground
  ,                                       !- Number of Vertices
  5.7912, 0, 2.4384,                      !- X,Y,Z Vertex 1 {m}
  5.7912, 0, 0,                           !- X,Y,Z Vertex 2 {m}
  5.7912, 3.048, 0,                       !- X,Y,Z Vertex 3 {m}
  5.7912, 3.048, 2.4384;                  !- X,Y,Z Vertex 4 {m}

OS:SubSurface,
  {94cd4023-4ed1-460e-ae45-d70e52f0b97b}, !- Handle
  Wall8-Window2,                          !- Name
  FixedWindow,                            !- Sub Surface Type
  ,                                       !- Construction Name
  {271ff8c5-b9fa-4d8a-92d5-793944e19c76}, !- Surface Name
  ,                                       !- Outside Boundary Condition Object
  0.5,                                    !- View Factor to Ground
  ,                                       !- Shading Control Name
  ,                                       !- Frame and Divider Name
  1,                                      !- Multiplier
  ,                                       !- Number of Vertices
  2.185851461664, 0, 2.1336,              !- X,Y,Z Vertex 1 {m}
  2.185851461664, 0, 0.9144,              !- X,Y,Z Vertex 2 {m}
  3.100251461664, 0, 0.9144,              !- X,Y,Z Vertex 3 {m}
  3.100251461664, 0, 2.1336;              !- X,Y,Z Vertex 4 {m}

OS:Surface,
  {271ff8c5-b9fa-4d8a-92d5-793944e19c76}, !- Handle
  Wall8,                                  !- Name
  Wall,                                   !- Surface Type
  ,                                       !- Construction Name
  {78fd69cc-ec4e-431c-987a-45498419c80f}, !- Space Name
  Outdoors,                               !- Outside Boundary Condition
  ,                                       !- Outside Boundary Condition Object
  SunExposed,                             !- Sun Exposure
  WindExposed,                            !- Wind Exposure
  ,                                       !- View Factor to Ground
  ,                                       !- Number of Vertices
  0, 0, 2.4384,                           !- X,Y,Z Vertex 1 {m}
  0, 0, 0,                                !- X,Y,Z Vertex 2 {m}
  5.7912, 0, 0,                           !- X,Y,Z Vertex 3 {m}
  5.7912, 0, 2.4384;                      !- X,Y,Z Vertex 4 {m}

OS:Surface,
  {33201afb-5cec-418a-8525-3eb7ba0cc2b9}, !- Handle
  Wall10,                                 !- Name
  Wall,                                   !- Surface Type
  ,                                       !- Construction Name
  {78fd69cc-ec4e-431c-987a-45498419c80f}, !- Space Name
  Surface,                                !- Outside Boundary Condition
  {baf7cf9b-49c3-4102-aa3b-83394124e2c6}, !- Outside Boundary Condition Object
  NoSun,                                  !- Sun Exposure
  NoWind,                                 !- Wind Exposure
  0,                                      !- View Factor to Ground
  ,                                       !- Number of Vertices
  5.7912, 3.048, 2.4384,                  !- X,Y,Z Vertex 1 {m}