
OS:Version,
  {ba14bd83-aa32-4140-a47b-8e606bcc990d}, !- Handle
  1.11.0;                                 !- Version Identifier

OS:Site,
  {918ee51b-a960-4418-bbdd-f6e40c2d880f}, !- Handle
  Chicago Ohare Intl Ap,                  !- Name
  41.98,                                  !- Latitude {deg}
  -87.92,                                 !- Longitude {deg}
  -6,                                     !- Time Zone {hr}
  201,                                    !- Elevation {m}
  Suburbs;                                !- Terrain

OS:SimulationControl,
  {8aa94b9c-d1b5-44d5-ba8e-16301cd3c8c4}, !- Handle
  Yes,                                    !- Do Zone Sizing Calculation
  No,                                     !- Do System Sizing Calculation
  Yes,                                    !- Do Plant Sizing Calculation
  No,                                     !- Run Simulation for Sizing Periods
  Yes,                                    !- Run Simulation for Weather File Run Periods
  0.05,                                   !- Loads Convergence Tolerance Value
  0.05,                                   !- Temperature Convergence Tolerance Value {deltaC}
  FullExterior,                           !- Solar Distribution
  50;                                     !- Maximum Number of Warmup Days

OS:Construction,
  {4e04b4c8-8c45-4086-8968-08965874298d}, !- Handle
  UFBsmtRimJoist,                         !- Name
  {c223d607-a37c-4669-90ba-dd48589ced01}, !- Surface Rendering Name
  {b73ce70d-59ae-43bd-9f40-0512170dd52a}, !- Layer 1
  {04250fc3-278f-4aee-ba48-f5ca14d368ee}, !- Layer 2
  {11b50383-758a-4a57-9e15-e14b57f2081a}; !- Layer 3

OS:Material,
  {b73ce70d-59ae-43bd-9f40-0512170dd52a}, !- Handle
  ResExtFinish,                           !- Name
  Rough,                                  !- Roughness
  0.0254,                                 !- Thickness {m}
  0.649125,                               !- Conductivity {W/m-K}
  1281.6,                                 !- Density {kg/m3}
  879.27,                                 !- Specific Heat {J/kg-K}
  0.9,                                    !- Thermal Absorptance
  0.75,                                   !- Solar Absorptance
  0.75;                                   !- Visible Absorptance

OS:Material,
  {04250fc3-278f-4aee-ba48-f5ca14d368ee}, !- Handle
  Plywood-3_2in,                          !- Name
  Rough,                                  !- Roughness
  0.0381,                                 !- Thickness {m}
  0.1154577,                              !- Conductivity {W/m-K}
  512.64,                                 !- Density {kg/m3}
  1214.23;                                !- Specific Heat {J/kg-K}

OS:Material,
  {11b50383-758a-4a57-9e15-e14b57f2081a}, !- Handle
  UFBsmtJoistandCavity,                   !- Name
  Rough,                                  !- Roughness
  0.23495,                                !- Thickness {m}
  0.212343999805118,                      !- Conductivity {W/m-K}
  82.081674,                              !- Density {kg/m3}
  1128.33754025411;                       !- Specific Heat {J/kg-K}

OS:ThermalZone,
  {5089f6b6-9e3c-4fa0-9b15-31a1f4f43375}, !- Handle
  unfinished basement zone,               !- Name
  1,                                      !- Multiplier
  2.4384,                                 !- Ceiling Height {m}
  184.399307664,                          !- Volume {m3}
  ,                                       !- Floor Area {m2}
  ,                                       !- Zone Inside Convection Algorithm
  ,                                       !- Zone Outside Convection Algorithm
  ,                                       !- Zone Conditioning Equipment List Name
  {e09293e8-0859-4f7d-9d66-cb7c37886d00}, !- Zone Air Inlet Port List
  {8cb81378-1931-48c2-aaba-10e389e9b2ab}, !- Zone Air Exhaust Port List
  {d2f76031-5df6-44a9-a111-76713a7c7ba9}, !- Zone Air Node Name
  ,                                       !- Zone Return Air Node Name
  ,                                       !- Primary Daylighting Control Name
  ,                                       !- Fraction of Zone Controlled by Primary Daylighting Control
  ,                                       !- Secondary Daylighting Control Name
  ,                                       !- Fraction of Zone Controlled by Secondary Daylighting Control
  ,                                       !- Illuminance Map Name
  {e0cb7a33-45a0-49c1-9aaf-08484d0c20f8}, !- Group Rendering Name
  ,                                       !- Thermostat Name
  No;                                     !- Use Ideal Air Loads

OS:Node,
  {156534a2-db28-4a24-9fe6-28ff86955fde}, !- Handle
  {d0963c4d-7cd0-48ab-b77f-bd7cd81fec08}, !- Name
  {d2f76031-5df6-44a9-a111-76713a7c7ba9}, !- Inlet Port
  ;                                       !- Outlet Port

OS:Connection,
  {d2f76031-5df6-44a9-a111-76713a7c7ba9}, !- Handle
  {ee5bdc0b-c84f-4d28-b1bb-ff1270a8dee3}, !- Name
  {5089f6b6-9e3c-4fa0-9b15-31a1f4f43375}, !- Source Object
  11,                                     !- Outlet Port
  {156534a2-db28-4a24-9fe6-28ff86955fde}, !- Target Object
  2;                                      !- Inlet Port

OS:PortList,
  {e09293e8-0859-4f7d-9d66-cb7c37886d00}, !- Handle
  {d0860ec4-1df3-44f3-bdc4-e5cae0d268e4}, !- Name
  {5089f6b6-9e3c-4fa0-9b15-31a1f4f43375}; !- HVAC Component

OS:PortList,
  {8cb81378-1931-48c2-aaba-10e389e9b2ab}, !- Handle
  {b6661788-30e0-4e4a-a30f-914f5f19b0e0}, !- Name
  {5089f6b6-9e3c-4fa0-9b15-31a1f4f43375}; !- HVAC Component

OS:Sizing:Zone,
  {f4a9477d-e240-4699-a1fe-86151d6900d6}, !- Handle
  {5089f6b6-9e3c-4fa0-9b15-31a1f4f43375}, !- Zone or ZoneList Name
  SupplyAirTemperature,                   !- Zone Cooling Design Supply Air Temperature Input Method
  14,                                     !- Zone Cooling Design Supply Air Temperature {C}
  11.11,                                  !- Zone Cooling Design Supply Air Temperature Difference {deltaC}
  SupplyAirTemperature,                   !- Zone Heating Design Supply Air Temperature Input Method
  40,                                     !- Zone Heating Design Supply Air Temperature {C}
  11.11,                                  !- Zone Heating Design Supply Air Temperature Difference {deltaC}
  0.0085,                                 !- Zone Cooling Design Supply Air Humidity Ratio {kg-H2O/kg-air}
  0.008,                                  !- Zone Heating Design Supply Air Humidity Ratio {kg-H2O/kg-air}
  ,                                       !- Zone Heating Sizing Factor
  ,                                       !- Zone Cooling Sizing Factor
  DesignDay,                              !- Cooling Design Air Flow Method
  ,                                       !- Cooling Design Air Flow Rate {m3/s}
  ,                                       !- Cooling Minimum Air Flow per Zone Floor Area {m3/s-m2}
  ,                                       !- Cooling Minimum Air Flow {m3/s}
  ,                                       !- Cooling Minimum Air Flow Fraction
  DesignDay,                              !- Heating Design Air Flow Method
  ,                                       !- Heating Design Air Flow Rate {m3/s}
  ,                                       !- Heating Maximum Air Flow per Zone Floor Area {m3/s-m2}
  ,                                       !- Heating Maximum Air Flow {m3/s}
  ,                                       !- Heating Maximum Air Flow Fraction
  ,                                       !- Design Zone Air Distribution Effectiveness in Cooling Mode
  ,                                       !- Design Zone Air Distribution Effectiveness in Heating Mode
  No,                                     !- Account for Dedicated Outdoor Air System
  NeutralSupplyAir,                       !- Dedicated Outdoor Air System Control Strategy
  Autosize,                               !- Dedicated Outdoor Air Low Setpoint Temperature for Design {C}
  Autosize;                               !- Dedicated Outdoor Air High Setpoint Temperature for Design {C}

OS:ZoneHVAC:EquipmentList,
  {fd122606-2689-481b-9105-4dcabaf52a79}, !- Handle
  {da633e99-22ab-448f-9760-4d860a906de7}, !- Name
  {5089f6b6-9e3c-4fa0-9b15-31a1f4f43375}; !- Thermal Zone

OS:Space,
  {f7be142d-bba7-4b1f-a8e0-2154c3768001}, !- Handle
  unfinished basement space,              !- Name
  {e6a2dd39-3241-42d3-b91c-156ffb0f9a77}, !- Space Type Name
  ,                                       !- Default Construction Set Name
  ,                                       !- Default Schedule Set Name
  0,                                      !- Direction of Relative North {deg}
  -5.9436,                                !- X Origin {m}
  -2.4384,                                !- Y Origin {m}
  -2.4384,                                !- Z Origin {m}
  ,                                       !- Building Story Name
  {5089f6b6-9e3c-4fa0-9b15-31a1f4f43375}, !- Thermal Zone Name
  ,                                       !- Part of Total Floor Area
  ;                                       !- Design Specification Outdoor Air Object Name

OS:Material,
  {e4b53b25-75ba-4719-a5b8-215dc4527175}, !- Handle
  RoofingMaterial,                        !- Name
  Rough,                                  !- Roughness
  0.0094488,                              !- Thickness {m}
  0.162714,                               !- Conductivity {W/m-K}
  1121.4,                                 !- Density {kg/m3}
  1465.45,                                !- Specific Heat {J/kg-K}
  0.91,                                   !- Thermal Absorptance
  0.92,                                   !- Solar Absorptance
  0.92;                                   !- Visible Absorptance

OS:Material,
  {f99b07d3-205a-4a0c-90c4-58e09bf1803d}, !- Handle
  Concrete-8in,                           !- Name
  Rough,                                  !- Roughness
  0.2032,                                 !- Thickness {m}
  1.3114056,                              !- Conductivity {W/m-K}
  2242.8,                                 !- Density {kg/m3}
  837.4,                                  !- Specific Heat {J/kg-K}
  0.9;                                    !- Thermal Absorptance

OS:Construction,
  {a9eedb34-57b8-4bfe-9ad9-c7b22564826d}, !- Handle
  GarageDoors,                            !- Name
  {fbd38228-7bcc-4b63-ab16-66c382940703}, !- Surface Rendering Name
  {e1ff347e-4a0c-4d39-a290-1285c83b1bff}; !- Layer 1

OS:Material,
  {e1ff347e-4a0c-4d39-a290-1285c83b1bff}, !- Handle
  GarageDoorMaterial,                     !- Name
  Rough,                                  !- Roughness
  0.0635,                                 !- Thickness {m}
  0.0874666504972108,                     !- Conductivity {W/m-K}
  512.64,                                 !- Density {kg/m3}
  1214.23;                                !- Specific Heat {J/kg-K}

OS:SubSurface,
  {f80eba10-6692-46e5-9c6f-144cca41644f}, !- Handle
  Wall7-Window1,                          !- Name
  FixedWindow,                            !- Sub Surface Type
  {f27b14e5-cf13-4a26-a31a-ad24ed8c96db}, !- Construction Name
  {1efef75b-0829-440e-9a02-ebe9d84dfda3}, !- Surface Name
  ,                                       !- Outside Boundary Condition Object
  0.5,                                    !- View Factor to Ground
  ,                                       !- Shading Control Name
  ,                                       !- Frame and Divider Name
  1,                                      !- Multiplier
  ,                                       !- Number of Vertices
  0, 4.90728, 2.1336,                     !- X,Y,Z Vertex 1 {m}
  0, 4.90728, 0.9144,                     !- X,Y,Z Vertex 2 {m}
  0, 3.99288, 0.9144,                     !- X,Y,Z Vertex 3 {m}
  0, 3.99288, 2.1336;                     !- X,Y,Z Vertex 4 {m}

OS:Construction,
  {f27b14e5-cf13-4a26-a31a-ad24ed8c96db}, !- Handle
  Left-Glass,                             !- Name
  {6e9e8a61-f396-435c-9fea-95605b1165c9}, !- Surface Rendering Name
  {b8d338b1-5e01-4346-872c-a0fd19b8bf98}; !- Layer 1

OS:WindowMaterial:SimpleGlazingSystem,
  {b8d338b1-5e01-4346-872c-a0fd19b8bf98}, !- Handle
  Left-Win,                               !- Name
  1.98076528277124,                       !- U-Factor {W/m2-K}
  0.309130645437316;                      !- Solar Heat Gain Coefficient

OS:Surface,
  {1efef75b-0829-440e-9a02-ebe9d84dfda3}, !- Handle
  Wall7,                                  !- Name
  Wall,                                   !- Surface Type
  {45678517-fecb-4c4c-b9bb-93b2e4e2feff}, !- Construction Name
  {c9f73411-2802-4935-b022-a557ea0936fe}, !- Space Name
  Outdoors,                               !- Outside Boundary Condition
  ,                                       !- Outside Boundary Condition Object
  SunExposed,                             !- Sun Exposure
  WindExposed,                            !- Wind Exposure
  ,                                       !- View Factor to Ground
  ,                                       !- Number of Vertices
  0, 7.9248, 2.4384,                      !- X,Y,Z Vertex 1 {m}
  0, 7.9248, 0,                           !- X,Y,Z Vertex 2 {m}
  0, 0, 0,                                !- X,Y,Z Vertex 3 {m}
  0, 0, 2.4384;                           !- X,Y,Z Vertex 4 {m}

OS:Construction,
  {45678517-fecb-4c4c-b9bb-93b2e4e2feff}, !- Handle
  ExtInsFinWall,                          !- Name
  {757bc7da-086b-4d4a-8b04-044d83606be8}, !- Surface Rendering Name
  {b73ce70d-59ae-43bd-9f40-0512170dd52a}, !- Layer 1
  {a0ffcf4e-11f7-4425-b307-f4f14afeb394}, !- Layer 2
  {11425cb7-c4d3-4244-8e4d-a209f772a9c5}; !- Layer 3

OS:Material,
  {a0ffcf4e-11f7-4425-b307-f4f14afeb394}, !- Handle
  StudandCavity,                          !- Name
  Rough,                                  !- Roughness
  0.0889,                                 !- Thickness {m}
  0.0553845876584766,                     !- Conductivity {W/m-K}
  162.40275,                              !- Density {kg/m3}
  1178.91670776819;                       !- Specific Heat {J/kg-K}

OS:Material,
  {11425cb7-c4d3-4244-8e4d-a209f772a9c5}, !- Handle
  ResExtWallMass,                         !- Name
  Rough,                                  !- Roughness
  0.0127,                                 !- Thickness {m}
  0.1602906,                              !- Conductivity {W/m-K}
  801,                                    !- Density {kg/m3}
  837.4,                                  !- Specific Heat {J/kg-K}
  0.9,                                    !- Thermal Absorptance
  0.5,                                    !- Solar Absorptance
  0.1;                                    !- Visible Absorptance

OS:ThermalZone,
  {4a05e092-9c81-4e23-aa15-4e725b61ec64}, !- Handle
  living zone,                            !- Name
  1,                                      !- Multiplier
  2.4384,                                 !- Ceiling Height {m}
  184.399307664,                          !- Volume {m3}
  ,                                       !- Floor Area {m2}
  ,                                       !- Zone Inside Convection Algorithm
  ,                                       !- Zone Outside Convection Algorithm
  ,                                       !- Zone Conditioning Equipment List Name
  {69c1b716-cf66-4808-8b0f-9ecffcead1a7}, !- Zone Air Inlet Port List
  {dffdc781-d0ed-4b35-8f14-abaa78c33740}, !- Zone Air Exhaust Port List
  {b4e20813-4d84-47dc-b335-e0021de4ff93}, !- Zone Air Node Name
  ,                                       !- Zone Return Air Node Name
  ,                                       !- Primary Daylighting Control Name
  ,                                       !- Fraction of Zone Controlled by Primary Daylighting Control
  ,                                       !- Secondary Daylighting Control Name
  ,                                       !- Fraction of Zone Controlled by Secondary Daylighting Control
  ,                                       !- Illuminance Map Name
  {60176a8c-3817-4778-8ef5-36089fae53bb}, !- Group Rendering Name
  ,                                       !- Thermostat Name
  No;                                     !- Use Ideal Air Loads

OS:Node,
  {cc9f1662-9784-4700-8044-6fdcd4f32bd7}, !- Handle
  {5fa83260-aafa-4401-a3ae-e4c330c6f22f}, !- Name
  {b4e20813-4d84-47dc-b335-e0021de4ff93}, !- Inlet Port
  ;                                       !- Outlet Port

OS:Connection,
  {b4e20813-4d84-47dc-b335-e0021de4ff93}, !- Handle
  {812adbc4-7dda-433c-8b0c-b1d317327904}, !- Name
  {4a05e092-9c81-4e23-aa15-4e725b61ec64}, !- Source Object
  11,                                     !- Outlet Port
  {cc9f1662-9784-4700-8044-6fdcd4f32bd7}, !- Target Object
  2;                                      !- Inlet Port

OS:PortList,
  {69c1b716-cf66-4808-8b0f-9ecffcead1a7}, !- Handle
  {f6d68d58-3735-4802-abfc-382fd949f436}, !- Name
  {4a05e092-9c81-4e23-aa15-4e725b61ec64}; !- HVAC Component

OS:PortList,
  {dffdc781-d0ed-4b35-8f14-abaa78c33740}, !- Handle
  {d3e32909-4ac1-48ea-95af-a586af9a2906}, !- Name
  {4a05e092-9c81-4e23-aa15-4e725b61ec64}; !- HVAC Component

OS:Sizing:Zone,
  {4fcdef3a-554e-4723-8484-4a922f623dc6}, !- Handle
  {4a05e092-9c81-4e23-aa15-4e725b61ec64}, !- Zone or ZoneList Name
  SupplyAirTemperature,                   !- Zone Cooling Design Supply Air Temperature Input Method
  14,                                     !- Zone Cooling Design Supply Air Temperature {C}
  11.11,                                  !- Zone Cooling Design Supply Air Temperature Difference {deltaC}
  SupplyAirTemperature,                   !- Zone Heating Design Supply Air Temperature Input Method
  40,                                     !- Zone Heating Design Supply Air Temperature {C}
  11.11,                                  !- Zone Heating Design Supply Air Temperature Difference {deltaC}
  0.0085,                                 !- Zone Cooling Design Supply Air Humidity Ratio {kg-H2O/kg-air}
  0.008,                                  !- Zone Heating Design Supply Air Humidity Ratio {kg-H2O/kg-air}
  ,                                       !- Zone Heating Sizing Factor
  ,                                       !- Zone Cooling Sizing Factor
  DesignDay,                              !- Cooling Design Air Flow Method
  ,                                       !- Cooling Design Air Flow Rate {m3/s}
  ,                                       !- Cooling Minimum Air Flow per Zone Floor Area {m3/s-m2}
  ,                                       !- Cooling Minimum Air Flow {m3/s}
  ,                                       !- Cooling Minimum Air Flow Fraction
  DesignDay,                              !- Heating Design Air Flow Method
  ,                                       !- Heating Design Air Flow Rate {m3/s}
  ,                                       !- Heating Maximum Air Flow per Zone Floor Area {m3/s-m2}
  ,                                       !- Heating Maximum Air Flow {m3/s}
  ,                                       !- Heating Maximum Air Flow Fraction
  ,                                       !- Design Zone Air Distribution Effectiveness in Cooling Mode
  ,                                       !- Design Zone Air Distribution Effectiveness in Heating Mode
  No,                                     !- Account for Dedicated Outdoor Air System
  NeutralSupplyAir,                       !- Dedicated Outdoor Air System Control Strategy
  Autosize,                               !- Dedicated Outdoor Air Low Setpoint Temperature for Design {C}
  Autosize;                               !- Dedicated Outdoor Air High Setpoint Temperature for Design {C}

OS:ZoneHVAC:EquipmentList,
  {9002eb60-cdff-4752-bf46-0e5198e2c994}, !- Handle
  {9c094523-b845-4b51-8c84-23154114c9ae}, !- Name
  {4a05e092-9c81-4e23-aa15-4e725b61ec64}; !- Thermal Zone

OS:Space,
  {c9f73411-2802-4935-b022-a557ea0936fe}, !- Handle
  living space,                           !- Name
  {b850148a-069a-461c-8849-7a9706addc93}, !- Space Type Name
  ,                                       !- Default Construction Set Name
  ,                                       !- Default Schedule Set Name
  0,                                      !- Direction of Relative North {deg}
  -5.9436,                                !- X Origin {m}
  -2.4384,                                !- Y Origin {m}
  0,                                      !- Z Origin {m}
  ,                                       !- Building Story Name
  {4a05e092-9c81-4e23-aa15-4e725b61ec64}, !- Thermal Zone Name
  ,                                       !- Part of Total Floor Area
  ;                                       !- Design Specification Outdoor Air Object Name

OS:Surface,
  {f651913e-fa9c-4b8b-be7d-44c7bdf85e6a}, !- Handle
  IntWall9,                               !- Name
  Wall,                                   !- Surface Type
  {64859583-3454-45ed-9125-ec15580f94c3}, !- Construction Name
  {242c2492-8ecb-4484-a2d5-a5eb327e4661}, !- Space Name
  Surface,                                !- Outside Boundary Condition
  {a85145d8-5fc0-4571-a84c-6603f9a68f4d}, !- Outside Boundary Condition Object
  NoSun,                                  !- Sun Exposure
  NoWind,                                 !- Wind Exposure
  0,                                      !- View Factor to Ground
  ,                                       !- Number of Vertices
  0, 6.096, 2.4384,                       !- X,Y,Z Vertex 1 {m}
  0, 6.096, 0,                            !- X,Y,Z Vertex 2 {m}
  0, 3.048, 0,                            !- X,Y,Z Vertex 3 {m}
  0, 3.048, 2.4384;                       !- X,Y,Z Vertex 4 {m}

OS:Construction,
  {64859583-3454-45ed-9125-ec15580f94c3}, !- Handle
  RevUnfinInsFinWall,                     !- Name
  {ce3fe663-606e-4438-b608-21fe74ac1e28}, !- Surface Rendering Name
  {14ce4c53-107c-431a-8bea-f05954e2fc68}, !- Layer 1
  {c0e1272e-e024-4f8a-9ba4-24b582292776}; !- Layer 2

OS:Material,
  {14ce4c53-107c-431a-8bea-f05954e2fc68}, !- Handle
  PartitionWallMass,                      !- Name
  Rough,                                  !- Roughness
  0.0127,                                 !- Thickness {m}
  0.1602906,                              !- Conductivity {W/m-K}
  801,                                    !- Density {kg/m3}
  837.4,                                  !- Specific Heat {J/kg-K}
  0.9,                                    !- Thermal Absorptance
  0.5,                                    !- Solar Absorptance
  0.1;                                    !- Visible Absorptance

OS:Material,
  {c0e1272e-e024-4f8a-9ba4-24b582292776}, !- Handle
  IntWallIns,                             !- Name
  Rough,                                  !- Roughness
  0.0889,                                 !- Thickness {m}
  0.0550583396675322,                     !- Conductivity {W/m-K}
  162.40275,                              !- Density {kg/m3}
  1178.91670776819;                       !- Specific Heat {J/kg-K}

OS:ThermalZone,
  {2c0a125f-d538-4795-a582-2bbe17e2d617}, !- Handle
  garage zone,                            !- Name
  1,                                      !- Multiplier
  4.2672,                                 !- Ceiling Height {m}
  181.2278208,                            !- Volume {m3}
  ,                                       !- Floor Area {m2}
  ,                                       !- Zone Inside Convection Algorithm
  ,                                       !- Zone Outside Convection Algorithm
  ,                                       !- Zone Conditioning Equipment List Name
  {08de2b7a-5efa-4748-8133-da3cbcda2b44}, !- Zone Air Inlet Port List
  {86102411-4551-4d33-978a-aaad1447eda9}, !- Zone Air Exhaust Port List
  {f88d1a3d-7b76-491f-8da1-2a87d74f7186}, !- Zone Air Node Name
  ,                                       !- Zone Return Air Node Name
  ,                                       !- Primary Daylighting Control Name
  ,                                       !- Fraction of Zone Controlled by Primary Daylighting Control
  ,                                       !- Secondary Daylighting Control Name
  ,                                       !- Fraction of Zone Controlled by Secondary Daylighting Control
  ,                                       !- Illuminance Map Name
  {dc325362-4515-4cec-9fee-84f9955cc237}, !- Group Rendering Name
  ,                                       !- Thermostat Name
  No;                                     !- Use Ideal Air Loads

OS:Node,
  {29ddc348-79db-492c-96fe-8c69d9c03ecb}, !- Handle
  {dc9bc6be-5b8f-4b00-82fd-875e31de3773}, !- Name
  {f88d1a3d-7b76-491f-8da1-2a87d74f7186}, !- Inlet Port
  ;                                       !- Outlet Port

OS:Connection,
  {f88d1a3d-7b76-491f-8da1-2a87d74f7186}, !- Handle
  {038a2443-0f2c-440a-8d20-6ecebc2fcc6c}, !- Name
  {2c0a125f-d538-4795-a582-2bbe17e2d617}, !- Source Object
  11,                                     !- Outlet Port
  {29ddc348-79db-492c-96fe-8c69d9c03ecb}, !- Target Object
  2;                                      !- Inlet Port

OS:PortList,
  {08de2b7a-5efa-4748-8133-da3cbcda2b44}, !- Handle
  {4bfa1690-ce6f-4d13-8036-020820d4783e}, !- Name
  {2c0a125f-d538-4795-a582-2bbe17e2d617}; !- HVAC Component

OS:PortList,
  {86102411-4551-4d33-978a-aaad1447eda9}, !- Handle
  {ce9420f5-4855-448e-a81c-61d85868d401}, !- Name
  {2c0a125f-d538-4795-a582-2bbe17e2d617}; !- HVAC Component

OS:Sizing:Zone,
  {420c3ea8-ad63-4012-b344-e8f08a516426}, !- Handle
  {2c0a125f-d538-4795-a582-2bbe17e2d617}, !- Zone or ZoneList Name
  SupplyAirTemperature,                   !- Zone Cooling Design Supply Air Temperature Input Method
  14,                                     !- Zone Cooling Design Supply Air Temperature {C}
  11.11,                                  !- Zone Cooling Design Supply Air Temperature Difference {deltaC}
  SupplyAirTemperature,                   !- Zone Heating Design Supply Air Temperature Input Method
  40,                                     !- Zone Heating Design Supply Air Temperature {C}
  11.11,                                  !- Zone Heating Design Supply Air Temperature Difference {deltaC}
  0.0085,                                 !- Zone Cooling Design Supply Air Humidity Ratio {kg-H2O/kg-air}
  0.008,                                  !- Zone Heating Design Supply Air Humidity Ratio {kg-H2O/kg-air}
  ,                                       !- Zone Heating Sizing Factor
  ,                                       !- Zone Cooling Sizing Factor
  DesignDay,                              !- Cooling Design Air Flow Method
  ,                                       !- Cooling Design Air Flow Rate {m3/s}
  ,                                       !- Cooling Minimum Air Flow per Zone Floor Area {m3/s-m2}
  ,                                       !- Cooling Minimum Air Flow {m3/s}
  ,                                       !- Cooling Minimum Air Flow Fraction
  DesignDay,                              !- Heating Design Air Flow Method
  ,                                       !- Heating Design Air Flow Rate {m3/s}
  ,                                       !- Heating Maximum Air Flow per Zone Floor Area {m3/s-m2}
  ,                                       !- Heating Maximum Air Flow {m3/s}
  ,                                       !- Heating Maximum Air Flow Fraction
  ,                                       !- Design Zone Air Distribution Effectiveness in Cooling Mode
  ,                                       !- Design Zone Air Distribution Effectiveness in Heating Mode
  No,                                     !- Account for Dedicated Outdoor Air System
  NeutralSupplyAir,                       !- Dedicated Outdoor Air System Control Strategy
  Autosize,                               !- Dedicated Outdoor Air Low Setpoint Temperature for Design {C}
  Autosize;                               !- Dedicated Outdoor Air High Setpoint Temperature for Design {C}

OS:ZoneHVAC:EquipmentList,
  {430b172f-4ebf-4a4f-a2ff-5c23aa812fa6}, !- Handle
  {322e54c4-60b6-4263-8172-c12c3fb0ab90}, !- Name
  {2c0a125f-d538-4795-a582-2bbe17e2d617}; !- Thermal Zone

OS:Space,
  {242c2492-8ecb-4484-a2d5-a5eb327e4661}, !- Handle
  garage space,                           !- Name
  {96a057f5-3aef-4efc-b2fa-2573f3daec1c}, !- Space Type Name
  ,                                       !- Default Construction Set Name
  ,                                       !- Default Schedule Set Name
  0,                                      !- Direction of Relative North {deg}
  -0.1524,                                !- X Origin {m}
  -5.4864,                                !- Y Origin {m}
  0,                                      !- Z Origin {m}
  ,                                       !- Building Story Name
  {2c0a125f-d538-4795-a582-2bbe17e2d617}, !- Thermal Zone Name
  ,                                       !- Part of Total Floor Area
  ;                                       !- Design Specification Outdoor Air Object Name

OS:Surface,
  {79715798-c519-49dc-a143-ba144bf32ecf}, !- Handle
  Wall16,                                 !- Name
  Wall,                                   !- Surface Type
  {fe7e56a8-7e72-4bb1-8695-e6a097003caf}, !- Construction Name
  {c075a077-c5ba-4686-879b-e43f8f25fb64}, !- Space Name
  Surface,                                !- Outside Boundary Condition
  {684ecbb8-ea53-4c93-840f-1969b67df7c2}, !- Outside Boundary Condition Object
  NoSun,                                  !- Sun Exposure
  NoWind,                                 !- Wind Exposure
  0,                                      !- View Factor to Ground
  ,                                       !- Number of Vertices
  5.7912, 3.048, 1.8288,                  !- X,Y,Z Vertex 1 {m}
  5.7912, 3.048, 0,                       !- X,Y,Z Vertex 2 {m}
  5.7912, 0, 0,                           !- X,Y,Z Vertex 3 {m}
  5.7912, 0, 0.3048;                      !- X,Y,Z Vertex 4 {m}

OS:Construction,