
OS:Version,
  {f1207d8c-8406-46e7-98c1-40690720e2c2}, !- Handle
  1.3.1;                                  !- Version Identifier

OS:Construction,
  {c7ce006e-43b9-4d7d-992d-ccea993b4758}, !- Handle
  Slab,                                   !- Name
  ,                                       !- Surface Rendering Name
  {eb905853-01c8-4488-a849-63c694f2395f}, !- Layer 1
  {5d7ddbbf-2302-487c-bc38-9adb45034e5c}, !- Layer 2
  {beea1990-aa4c-4853-bda0-588640ec0802}, !- Layer 3
  {20a2d3e0-4cf3-472f-9d71-bdc210d03e45}; !- Layer 4

OS:Material,
  {5d7ddbbf-2302-487c-bc38-9adb45034e5c}, !- Handle
  Soil_12in,                              !- Name
  Rough,                                  !- Roughness
  0.3048,                                 !- Thickness {m}
  1.731,                                  !- Conductivity {W/m-K}
  1842.3,                                 !- Density {kg/m3}
  418.7;                                  !- Specific Heat {J/kg-K}

OS:Material,
  {beea1990-aa4c-4853-bda0-588640ec0802}, !- Handle
  SlabMass,                               !- Name
  Rough,                                  !- Roughness
  0.1016,                                 !- Thickness {m}
  1.312675,                               !- Conductivity {W/m-K}
  2242.79999999999,                       !- Density {kg/m3}
  837.4;                                  !- Specific Heat {J/kg-K}

OS:Material,
  {20a2d3e0-4cf3-472f-9d71-bdc210d03e45}, !- Handle
  SlabCarpetBareEquivalentMaterial,       !- Name
  Rough,                                  !- Roughness
  0.0254,                                 !- Thickness {m}
  0.0866804263311929,                     !- Conductivity {W/m-K}
  40.05,                                  !- Density {kg/m3}
  1214.23;                                !- Specific Heat {J/kg-K}

OS:Material,
  {eb905853-01c8-4488-a849-63c694f2395f}, !- Handle
  Mat-Fic-Slab,                           !- Name
  Rough,                                  !- Roughness
  0.0254,                                 !- Thickness {m}
  0.0032332163742729,                     !- Conductivity {W/m-K}
  40.05,                                  !- Density {kg/m3}
  1214.23;                                !- Specific Heat {J/kg-K}

