
OS:Version,
  {bbf42417-04f3-47ec-be50-931edd98d6c8}, !- Handle
  1.11.0;                                 !- Version Identifier

OS:Site,
  {a82a43b2-7724-4429-a2c7-92bf5346bfe6}, !- Handle
  Phoenix Sky Harbor Intl Ap,             !- Name
  33.45,                                  !- Latitude {deg}
  -111.98,                                !- Longitude {deg}
  -7,                                     !- Time Zone {hr}
  337,                                    !- Elevation {m}
  Suburbs;                                !- Terrain

OS:SimulationControl,
  {2174b31b-5dcc-4ea4-b2a5-e20042ca1676}, !- Handle
  Yes,                                    !- Do Zone Sizing Calculation
  No,                                     !- Do System Sizing Calculation
  Yes,                                    !- Do Plant Sizing Calculation
  No,                                     !- Run Simulation for Sizing Periods
  Yes,                                    !- Run Simulation for Weather File Run Periods
  0.05,                                   !- Loads Convergence Tolerance Value
  0.05,                                   !- Temperature Convergence Tolerance Value {deltaC}
  FullExterior,                           !- Solar Distribution
  50;                                     !- Maximum Number of Warmup Days

OS:Construction,
  {9181bc13-1daa-4685-94fa-bb7a11c5ac5e}, !- Handle
  GarageDoors,                            !- Name
  {c902912e-9b0c-4aa3-b4cb-59fd2f6fa265}, !- Surface Rendering Name
  {2d13a2ff-1e96-487d-8b99-352850b9ab54}; !- Layer 1

OS:Material,
  {2d13a2ff-1e96-487d-8b99-352850b9ab54}, !- Handle
  GarageDoorMaterial,                     !- Name
  Rough,                                  !- Roughness
  0.0635,                                 !- Thickness {m}
  0.0874666504972108,                     !- Conductivity {W/m-K}
  512.64,                                 !- Density {kg/m3}
  1214.23;                                !- Specific Heat {J/kg-K}

OS:Construction,
  {9bb69f81-ca88-4ec8-a6de-5cdb48efed3c}, !- Handle
  ExtUninsUnfinWall,                      !- Name
  {27d614f7-94e3-4413-9f80-2b635263c251}, !- Surface Rendering Name
  {27e6970f-efa9-4a73-8f83-fe5045568198}, !- Layer 1
  {2ed582ff-5edb-4af8-bef3-702f8ff535d7}, !- Layer 2
  {3a4240f5-9277-462a-9b7c-115718b58381}; !- Layer 3

OS:Material,
  {27e6970f-efa9-4a73-8f83-fe5045568198}, !- Handle
  ResExtFinish,                           !- Name
  Rough,                                  !- Roughness
  0.0254,                                 !- Thickness {m}
  0.649125,                               !- Conductivity {W/m-K}
  1281.6,                                 !- Density {kg/m3}
  879.27,                                 !- Specific Heat {J/kg-K}
  0.9,                                    !- Thermal Absorptance
  0.75,                                   !- Solar Absorptance
  0.75;                                   !- Visible Absorptance

OS:Material,
  {2ed582ff-5edb-4af8-bef3-702f8ff535d7}, !- Handle
  ResExtWallSheathing,                    !- Name
  Rough,                                  !- Roughness
  0.0127,                                 !- Thickness {m}
  0.1154577,                              !- Conductivity {W/m-K}
  512.64,                                 !- Density {kg/m3}
  1214.23;                                !- Specific Heat {J/kg-K}

OS:Material,
  {3a4240f5-9277-462a-9b7c-115718b58381}, !- Handle
  StudandAirWall,                         !- Name
  Rough,                                  !- Roughness
  0.0889,                                 !- Thickness {m}
  0.442568232,                            !- Conductivity {W/m-K}
  49.0964011273899,                       !- Density {kg/m3}
  1209.81072341278;                       !- Specific Heat {J/kg-K}

OS:SubSurface,
  {0b3407c1-ef30-4bff-b05e-e51f6024723e}, !- Handle
  Wall5-Window1,                          !- Name
  FixedWindow,                            !- Sub Surface Type
  {e502a81e-3d35-47ee-83ee-0f802f99c30f}, !- Construction Name
  {8f6bdf88-a313-46a4-8a3a-a05c7b169cd1}, !- Surface Name
  ,                                       !- Outside Boundary Condition Object
  0.5,                                    !- View Factor to Ground
  ,                                       !- Shading Control Name
  ,                                       !- Frame and Divider Name
  1,                                      !- Multiplier
  ,                                       !- Number of Vertices
  11.8872, 5.51688, 2.1336,               !- X,Y,Z Vertex 1 {m}
  11.8872, 5.51688, 1.014425871576,       !- X,Y,Z Vertex 2 {m}
  11.8872, 6.356470540272, 1.014425871576, !- X,Y,Z Vertex 3 {m}
  11.8872, 6.356470540272, 2.1336;        !- X,Y,Z Vertex 4 {m}

OS:Construction,
  {e502a81e-3d35-47ee-83ee-0f802f99c30f}, !- Handle
  Right-Glass,                            !- Name
  {ae0a1528-761c-4ba5-88a0-b41c92b379a9}, !- Surface Rendering Name
  {2bdb4db1-378e-4053-80fd-225d74289d15}; !- Layer 1

OS:WindowMaterial:SimpleGlazingSystem,
  {2bdb4db1-378e-4053-80fd-225d74289d15}, !- Handle
  Right-Win,                              !- Name
  1.98076528277124,                       !- U-Factor {W/m2-K}
  0.309130645437316;                      !- Solar Heat Gain Coefficient

OS:Surface,
  {8f6bdf88-a313-46a4-8a3a-a05c7b169cd1}, !- Handle
  Wall5,                                  !- Name
  Wall,                                   !- Surface Type
  {ca990d43-a4ee-4d4a-92a5-30a47603edde}, !- Construction Name
  {9883da2c-8372-43b5-8d96-25718e367559}, !- Space Name
  Outdoors,                               !- Outside Boundary Condition
  ,                                       !- Outside Boundary Condition Object
  SunExposed,                             !- Sun Exposure
  WindExposed,                            !- Wind Exposure
  ,                                       !- View Factor to Ground
  ,                                       !- Number of Vertices
  11.8872, 3.048, 2.4384,                 !- X,Y,Z Vertex 1 {m}
  11.8872, 3.048, 0,                      !- X,Y,Z Vertex 2 {m}
  11.8872, 7.9248, 0,                     !- X,Y,Z Vertex 3 {m}
  11.8872, 7.9248, 2.4384;                !- X,Y,Z Vertex 4 {m}

OS:Construction,
  {ca990d43-a4ee-4d4a-92a5-30a47603edde}, !- Handle
  ExtInsFinWall,                          !- Name
  {accc12a9-bf00-4a27-8572-aef4008c5276}, !- Surface Rendering Name
  {27e6970f-efa9-4a73-8f83-fe5045568198}, !- Layer 1
  {cb90f450-9036-46c2-9997-23bd06931f31}, !- Layer 2
  {9934ff8e-699e-4cb8-a78a-9bba26e41d7f}; !- Layer 3

OS:Material,
  {cb90f450-9036-46c2-9997-23bd06931f31}, !- Handle
  StudandCavity,                          !- Name
  Rough,                                  !- Roughness
  0.0889,                                 !- Thickness {m}
  0.0553845876584766,                     !- Conductivity {W/m-K}
  162.40275,                              !- Density {kg/m3}
  1178.91670776819;                       !- Specific Heat {J/kg-K}

OS:Material,
  {9934ff8e-699e-4cb8-a78a-9bba26e41d7f}, !- Handle
  ResExtWallMass,                         !- Name
  Rough,                                  !- Roughness
  0.0127,                                 !- Thickness {m}
  0.1602906,                              !- Conductivity {W/m-K}
  801,                                    !- Density {kg/m3}
  837.4,                                  !- Specific Heat {J/kg-K}
  0.9,                                    !- Thermal Absorptance
  0.5,                                    !- Solar Absorptance
  0.1;                                    !- Visible Absorptance

OS:ThermalZone,
  {6969d1f3-2642-42a3-a603-080284f49abe}, !- Handle
  living zone,                            !- Name
  1,                                      !- Multiplier
  4.8768,                                 !- Ceiling Height {m}
  414.105570528,                          !- Volume {m3}
  ,                                       !- Floor Area {m2}
  ,                                       !- Zone Inside Convection Algorithm
  ,                                       !- Zone Outside Convection Algorithm
  ,                                       !- Zone Conditioning Equipment List Name
  {f802ecf7-1e39-4caa-9057-cec97f98e3cf}, !- Zone Air Inlet Port List
  {15e65566-37e4-4ea9-8e4d-2936e0139efe}, !- Zone Air Exhaust Port List
  {4579f1e4-ff85-445b-9dc2-fbafdd77d2bb}, !- Zone Air Node Name
  ,                                       !- Zone Return Air Node Name
  ,                                       !- Primary Daylighting Control Name
  ,                                       !- Fraction of Zone Controlled by Primary Daylighting Control
  ,                                       !- Secondary Daylighting Control Name
  ,                                       !- Fraction of Zone Controlled by Secondary Daylighting Control
  ,                                       !- Illuminance Map Name
  {45fe405f-4d7b-4f26-ba1a-81d87e6b66f3}, !- Group Rendering Name
  ,                                       !- Thermostat Name
  No;                                     !- Use Ideal Air Loads

OS:Node,
  {9cfd1b45-63a1-4d31-ae89-664bd41a2b20}, !- Handle
  {9d34e5a5-42bf-473e-abad-c18ff5b8a97b}, !- Name
  {4579f1e4-ff85-445b-9dc2-fbafdd77d2bb}, !- Inlet Port
  ;                                       !- Outlet Port

OS:Connection,
  {4579f1e4-ff85-445b-9dc2-fbafdd77d2bb}, !- Handle
  {df2b4a5d-9ec5-4b67-b7ea-2fe6068d1239}, !- Name
  {6969d1f3-2642-42a3-a603-080284f49abe}, !- Source Object
  11,                                     !- Outlet Port
  {9cfd1b45-63a1-4d31-ae89-664bd41a2b20}, !- Target Object
  2;                                      !- Inlet Port

OS:PortList,
  {f802ecf7-1e39-4caa-9057-cec97f98e3cf}, !- Handle
  {222f8cde-567a-4f7d-98e8-d407db8437da}, !- Name
  {6969d1f3-2642-42a3-a603-080284f49abe}; !- HVAC Component

OS:PortList,
  {15e65566-37e4-4ea9-8e4d-2936e0139efe}, !- Handle
  {4b8fdb65-b354-4a9a-821a-e7d40e6b1173}, !- Name
  {6969d1f3-2642-42a3-a603-080284f49abe}; !- HVAC Component

OS:Sizing:Zone,
  {a29d40a7-16dd-4315-a6c5-dfdab5085490}, !- Handle
  {6969d1f3-2642-42a3-a603-080284f49abe}, !- Zone or ZoneList Name
  SupplyAirTemperature,                   !- Zone Cooling Design Supply Air Temperature Input Method
  14,                                     !- Zone Cooling Design Supply Air Temperature {C}
  11.11,                                  !- Zone Cooling Design Supply Air Temperature Difference {deltaC}
  SupplyAirTemperature,                   !- Zone Heating Design Supply Air Temperature Input Method
  40,                                     !- Zone Heating Design Supply Air Temperature {C}
  11.11,                                  !- Zone Heating Design Supply Air Temperature Difference {deltaC}
  0.0085,                                 !- Zone Cooling Design Supply Air Humidity Ratio {kg-H2O/kg-air}
  0.008,                                  !- Zone Heating Design Supply Air Humidity Ratio {kg-H2O/kg-air}
  ,                                       !- Zone Heating Sizing Factor
  ,                                       !- Zone Cooling Sizing Factor
  DesignDay,                              !- Cooling Design Air Flow Method
  ,                                       !- Cooling Design Air Flow Rate {m3/s}
  ,                                       !- Cooling Minimum Air Flow per Zone Floor Area {m3/s-m2}
  ,                                       !- Cooling Minimum Air Flow {m3/s}
  ,                                       !- Cooling Minimum Air Flow Fraction
  DesignDay,                              !- Heating Design Air Flow Method
  ,                                       !- Heating Design Air Flow Rate {m3/s}
  ,                                       !- Heating Maximum Air Flow per Zone Floor Area {m3/s-m2}
  ,                                       !- Heating Maximum Air Flow {m3/s}
  ,                                       !- Heating Maximum Air Flow Fraction
  ,                                       !- Design Zone Air Distribution Effectiveness in Cooling Mode
  ,                                       !- Design Zone Air Distribution Effectiveness in Heating Mode
  No,                                     !- Account for Dedicated Outdoor Air System
  NeutralSupplyAir,                       !- Dedicated Outdoor Air System Control Strategy
  Autosize,                               !- Dedicated Outdoor Air Low Setpoint Temperature for Design {C}
  Autosize;                               !- Dedicated Outdoor Air High Setpoint Temperature for Design {C}

OS:ZoneHVAC:EquipmentList,
  {e25e3b0e-bd39-4d51-b75e-ce53e4f488d8}, !- Handle
  {de53332d-5507-444d-8f1b-89a6b038bdcf}, !- Name
  {6969d1f3-2642-42a3-a603-080284f49abe}; !- Thermal Zone

OS:Space,
  {9883da2c-8372-43b5-8d96-25718e367559}, !- Handle
  living space,                           !- Name
  {3d6d1511-06f5-40b5-aad5-afafc49f72d9}, !- Space Type Name
  ,                                       !- Default Construction Set Name
  ,                                       !- Default Schedule Set Name
  0,                                      !- Direction of Relative North {deg}
  -5.9436,                                !- X Origin {m}
  -2.4384,                                !- Y Origin {m}
  0,                                      !- Z Origin {m}
  ,                                       !- Building Story Name
  {6969d1f3-2642-42a3-a603-080284f49abe}, !- Thermal Zone Name
  ,                                       !- Part of Total Floor Area
  ;                                       !- Design Specification Outdoor Air Object Name

OS:Surface,
  {87560360-538b-4991-b273-5218f7ab05a6}, !- Handle
  Wall11,                                 !- Name
  Wall,                                   !- Surface Type
  {ca990d43-a4ee-4d4a-92a5-30a47603edde}, !- Construction Name
  {9883da2c-8372-43b5-8d96-25718e367559}, !- Space Name
  Outdoors,                               !- Outside Boundary Condition
  ,                                       !- Outside Boundary Condition Object
  SunExposed,                             !- Sun Exposure
  WindExposed,                            !- Wind Exposure
  ,                                       !- View Factor to Ground
  ,                                       !- Number of Vertices
  0, 0, 4.8768,                           !- X,Y,Z Vertex 1 {m}
  0, 0, 2.4384,                           !- X,Y,Z Vertex 2 {m}
  5.7912, 0, 2.4384,                      !- X,Y,Z Vertex 3 {m}
  5.7912, 0, 4.8768;                      !- X,Y,Z Vertex 4 {m}

OS:WindowMaterial:SimpleGlazingSystem,
  {a738642a-19b6-47c6-a524-e46f8f6cfcb4}, !- Handle
  Front-Win,                              !- Name
  1.98076528277124,                       !- U-Factor {W/m2-K}
  0.309130645437316;                      !- Solar Heat Gain Coefficient

OS:Material,
  {cc2d9d09-66db-42ab-a9e3-2a9a4f16a842}, !- Handle
  Soil-12in,                              !- Name
  Rough,                                  !- Roughness
  0.3048,                                 !- Thickness {m}
  1.731,                                  !- Conductivity {W/m-K}
  1842.3,                                 !- Density {kg/m3}
  418.7;                                  !- Specific Heat {J/kg-K}

OS:Surface,
  {5c517183-1b7d-407e-a63f-2474e9c99ab1}, !- Handle
  Wall18,                                 !- Name
  Wall,                                   !- Surface Type
  {ca990d43-a4ee-4d4a-92a5-30a47603edde}, !- Construction Name
  {9883da2c-8372-43b5-8d96-25718e367559}, !- Space Name
  Outdoors,                               !- Outside Boundary Condition
  ,                                       !- Outside Boundary Condition Object
  SunExposed,                             !- Sun Exposure
  WindExposed,                            !- Wind Exposure
  ,                                       !- View Factor to Ground
  ,                                       !- Number of Vertices
  5.7912, 0, 4.8768,                      !- X,Y,Z Vertex 1 {m}
  5.7912, 0, 2.7432,                      !- X,Y,Z Vertex 2 {m}
  8.8392, 0, 4.2672,                      !- X,Y,Z Vertex 3 {m}
  11.8872, 0, 2.7432,                     !- X,Y,Z Vertex 4 {m}
  11.8872, 0, 4.8768;                     !- X,Y,Z Vertex 5 {m}

OS:Material,
  {f3f93259-5143-425a-a443-c14ede061968}, !- Handle
  FloorMass,                              !- Name
  Rough,                                  !- Roughness
  0.015875,                               !- Thickness {m}
  0.1154577,                              !- Conductivity {W/m-K}
  544.68,                                 !- Density {kg/m3}
  1214.23,                                !- Specific Heat {J/kg-K}
  0.9,                                    !- Thermal Absorptance
  0.6;                                    !- Solar Absorptance

OS:SubSurface,
  {fd87a4d6-1aa5-4f94-9869-7d94804e2474}, !- Handle
  Wall6-Window3,                          !- Name
  FixedWindow,                            !- Sub Surface Type
  {5bff25bc-0a79-49ce-81e2-9ade1e0ce581}, !- Construction Name
  {14327590-7e4f-44d3-be99-8ff15bcd9105}, !- Surface Name
  ,                                       !- Outside Boundary Condition Object
  0.5,                                    !- View Factor to Ground
  ,                                       !- Shading Control Name
  ,                                       !- Frame and Divider Name
  1,                                      !- Multiplier
  ,                                       !- Number of Vertices
  5.45247764976, 7.9248, 2.1336,          !- X,Y,Z Vertex 1 {m}
  5.45247764976, 7.9248, 0.98678780544,   !- X,Y,Z Vertex 2 {m}
  4.59215343696, 7.9248, 0.98678780544,   !- X,Y,Z Vertex 3 {m}
  4.59215343696, 7.9248, 2.1336;          !- X,Y,Z Vertex 4 {m}

OS:Construction,
  {5bff25bc-0a79-49ce-81e2-9ade1e0ce581}, !- Handle
  Back-Glass,                             !- Name
  {a3f238f3-8b6d-4b86-965e-39179103f54c}, !- Surface Rendering Name
  {87a313aa-ba86-400b-b57b-c47d2938d871}; !- Layer 1

OS:WindowMaterial:SimpleGlazingSystem,
  {87a313aa-ba86-400b-b57b-c47d2938d871}, !- Handle
  Back-Win,                               !- Name
  1.98076528277124,                       !- U-Factor {W/m2-K}
  0.309130645437316;                      !- Solar Heat Gain Coefficient

OS:Surface,
  {14327590-7e4f-44d3-be99-8ff15bcd9105}, !- Handle
  Wall6,                                  !- Name
  Wall,                                   !- Surface Type
  {ca990d43-a4ee-4d4a-92a5-30a47603edde}, !- Construction Name
  {9883da2c-8372-43b5-8d96-25718e367559}, !- Space Name
  Outdoors,                               !- Outside Boundary Condition
  ,                                       !- Outside Boundary Condition Object
  SunExposed,                             !- Sun Exposure
  WindExposed,                            !- Wind Exposure
  ,                                       !- View Factor to Ground
  ,                                       !- Number of Vertices
  11.8872, 7.9248, 2.4384,                !- X,Y,Z Vertex 1 {m}
  11.8872, 7.9248, 0,                     !- X,Y,Z Vertex 2 {m}
  0, 7.9248, 0,                           !- X,Y,Z Vertex 3 {m}
  0, 7.9248, 2.4384;                      !- X,Y,Z Vertex 4 {m}

OS:SubSurface,
  {3d2873d8-3ea3-42d8-a7f9-1a57486ff26a}, !- Handle
  Wall1-Window3,                          !- Name
  FixedWindow,                            !- Sub Surface Type
  {f4459df1-24a6-40ae-852d-0c73730bb4f3}, !- Construction Name
  {f8ccde06-3050-44e5-84c0-2b95a48c9c5d}, !- Surface Name
  ,                                       !- Outside Boundary Condition Object
  0.5,                                    !- View Factor to Ground
  ,                                       !- Shading Control Name
  ,                                       !- Frame and Divider Name
  1,                                      !- Multiplier
  ,                                       !- Number of Vertices
  0, 2.62128, 2.1336,                     !- X,Y,Z Vertex 1 {m}
  0, 2.62128, 1.086708524064,             !- X,Y,Z Vertex 2 {m}
  0, 1.835915001264, 1.086708524064,      !- X,Y,Z Vertex 3 {m}
  0, 1.835915001264, 2.1336;              !- X,Y,Z Vertex 4 {m}

OS:Construction,
  {f4459df1-24a6-40ae-852d-0c73730bb4f3}, !- Handle
  Left-Glass,                             !- Name
  {2d868c7b-8c70-4d62-873f-cbb25e092006}, !- Surface Rendering Name
  {8d0f3b8e-f847-4a29-850c-aa2107ae36e6}; !- Layer 1

OS:WindowMaterial:SimpleGlazingSystem,
  {8d0f3b8e-f847-4a29-850c-aa2107ae36e6}, !- Handle
  Left-Win,                               !- Name
  1.98076528277124,                       !- U-Factor {W/m2-K}
  0.309130645437316;                      !- Solar Heat Gain Coefficient

OS:Surface,
  {f8ccde06-3050-44e5-84c0-2b95a48c9c5d}, !- Handle
  Wall1,                                  !- Name
  Wall,                                   !- Surface Type
  {ca990d43-a4ee-4d4a-92a5-30a47603edde}, !- Construction Name
  {9883da2c-8372-43b5-8d96-25718e367559}, !- Space Name
  Outdoors,                               !- Outside Boundary Condition
  ,                                       !- Outside Boundary Condition Object
  SunExposed,                             !- Sun Exposure
  WindExposed,                            !- Wind Exposure
  ,                                       !- View Factor to Ground
  ,                                       !- Number of Vertices
  0, 7.9248, 2.4384,                      !- X,Y,Z Vertex 1 {m}
  0, 7.9248, 0,                           !- X,Y,Z Vertex 2 {m}
  0, 0, 0,                                !- X,Y,Z Vertex 3 {m}
  0, 0, 2.4384;                           !- X,Y,Z Vertex 4 {m}

OS:SubSurface,
  {863fd7d2-eecf-46d8-9e8f-38408fd76772}, !- Handle
  Wall14-Window1,                         !- Name
  FixedWindow,                            !- Sub Surface Type
  {5bff25bc-0a79-49ce-81e2-9ade1e0ce581}, !- Construction Name
  {787a5928-4d7b-416b-83cb-525e03434b25}, !- Surface Name
  ,                                       !- Outside Boundary Condition Object
  0.5,                                    !- View Factor to Ground
  ,                                       !- Shading Control Name
  ,                                       !- Frame and Divider Name
  1,                                      !- Multiplier
  ,                                       !- Number of Vertices
  9.1000009008, 7.9248, 4.572,            !- X,Y,Z Vertex 1 {m}
  9.1000009008, 7.9248, 3.42518780544,    !- X,Y,Z Vertex 2 {m}
  8.239676688, 7.9248, 3.42518780544,     !- X,Y,Z Vertex 3 {m}
  8.239676688, 7.9248, 4.572;             !- X,Y,Z Vertex 4 {m}

OS:Surface,
  {787a5928-4d7b-416b-83cb-525e03434b25}, !- Handle
  Wall14,                                 !- Name
  Wall,                                   !- Surface Type
  {ca990d43-a4ee-4d4a-92a5-30a47603edde}, !- Construction Name
  {9883da2c-8372-43b5-8d96-25718e367559}, !- Space Name
  Outdoors,                               !- Outside Boundary Condition
  ,                                       !- Outside Boundary Condition Object
  SunExposed,                             !- Sun Exposure
  WindExposed,                            !- Wind Exposure
  ,                                       !- View Factor to Ground
  ,                                       !- Number of Vertices
  11.8872, 7.9248, 4.8768,                !- X,Y,Z Vertex 1 {m}
  11.8872, 7.9248, 2.4384,                !- X,Y,Z Vertex 2 {m}
  0, 7.9248, 2.4384,                      !- X,Y,Z Vertex 3 {m}
  0, 7.9248, 4.8768;                      !- X,Y,Z Vertex 4 {m}

OS:Surface,
  {ea525abc-fa0d-45c9-a1bb-04dfb8d3776f}, !- Handle
  IntWall12,                              !- Name
  Wall,                                   !- Surface Type
  {a8d34e56-d2bd-42a0-af84-bb175464f695}, !- Construction Name
  {da585923-591b-4ea2-9934-800c04e6d5f3}, !- Space Name
  Surface,                                !- Outside Boundary Condition
  {d119d5ab-7405-4bd2-b8da-9d78dd42833b}, !- Outside Boundary Condition Object
  NoSun,                                  !- Sun Exposure
  NoWind,                                 !- Wind Exposure
  0,                                      !- View Factor to Ground
  ,                                       !- Number of Vertices
  3.048, 3.048, 4.2672,                   !- X,Y,Z Vertex 1 {m}
  6.096, 3.048, 2.7432,                   !- X,Y,Z Vertex 2 {m}
  6.096, 3.048, 2.4384,                   !- X,Y,Z Vertex 3 {m}
  0, 3.048, 2.4384,                       !- X,Y,Z Vertex 4 {m}
  0, 3.048, 2.7432;                       !- X,Y,Z Vertex 5 {m}

OS:Construction,
  {a8d34e56-d2bd-42a0-af84-bb175464f695}, !- Handle
  RevUnfinInsFinWall,                     !- Name
  {7186a457-0cfd-4b63-a41e-6d08d7262107}, !- Surface Rendering Name
  {a8fb4228-7057-4f0e-ab70-a8a0216eb910}, !- Layer 1
  {0db8d425-e20d-4379-991f-b5015d79c30f}; !- Layer 2

OS:Material,
  {a8fb4228-7057-4f0e-ab70-a8a0216eb910}, !- Handle
  PartitionWallMass,                      !- Name
  Rough,                                  !- Roughness
  0.0127,                                 !- Thickness {m}
  0.1602906,                              !- Conductivity {W/m-K}
  801,                                    !- Density {kg/m3}
  837.4,                                  !- Specific Heat {J/kg-K}
  0.9,                                    !- Thermal Absorptance
  0.5,                                    !- Solar Absorptance
  0.1;                                    !- Visible Absorptance

OS:Material,
  {0db8d425-e20d-4379-991f-b5015d79c30f}, !- Handle
  IntWallIns,                             !- Name
  Rough,                                  !- Roughness
  0.0889,                                 !- Thickness {m}
  0.0550583396675322,                     !- Conductivity {W/m-K}
  162.40275,                              !- Density {kg/m3}
  1178.91670776819;                       !- Specific Heat {J/kg-K}

OS:ThermalZone,
  {a69134d9-abb6-468d-966c-c22afbb953d3}, !- Handle
  garage zone,                            !- Name
  1,                                      !- Multiplier
  4.2672,                                 !- Ceiling Height {m}
  135.9208656,                            !- Volume {m3}
  ,                                       !- Floor Area {m2}
  ,                                       !- Zone Inside Convection Algorithm
  ,                                       !- Zone Outside Convection Algorithm
  ,                                       !- Zone Conditioning Equipment List Name
  {bad5d735-6496-4919-9426-b1fd35500467}, !- Zone Air Inlet Port List
  {86cde9b0-2769-4fb1-8a40-52c2c4bc91f1}, !- Zone Air Exhaust Port List
  {f2e02256-52b5-44d4-ac13-a82253ccd5cc}, !- Zone Air Node Name
  ,                                       !- Zone Return Air Node Name
  ,                                       !- Primary Daylighting Control Name
  ,                                       !- Fraction of Zone Controlled by Primary Daylighting Control
  ,                                       !- Secondary Daylighting Control Name
  ,                                       !- Fraction of Zone Controlled by Secondary Daylighting Control
  ,                                       !- Illuminance Map Name
  {05dac108-9ab1-475d-aeb7-c025f22864d1}, !- Group Rendering Name
  ,                                       !- Thermostat Name
  No;                                     !- Use Ideal Air Loads

OS:Node,
  {3969d820-7e1b-4490-94a8-0531b42a9d7b}, !- Handle
  {7f0a6f04-45e7-44c9-a391-6d59e3376446}, !- Name
  {f2e02256-52b5-44d4-ac13-a82253ccd5cc}, !- Inlet Port
  ;                                       !- Outlet Port

OS:Connection,
  {f2e02256-52b5-44d4-ac13-a82253ccd5cc}, !- Handle
  {19382174-80a9-4099-8ecb-f6f1bca54c0e}, !- Name
  {a69134d9-abb6-468d-966c-c22afbb953d3}, !- Source Object
  11,                                     !- Outlet Port
  {3969d820-7e1b-4490-94a8-0531b42a9d7b}, !- Target Object
  2;                                      !- Inlet Port

OS:PortList,
  {bad5d735-6496-4919-9426-b1fd35500467}, !- Handle
  {76f8d0c1-0022-4e74-9add-4d0961d1360a}, !- Name
  {a69134d9-abb6-468d-966c-c22afbb953d3}; !- HVAC Component

OS:PortList,
  {86cde9b0-2769-4fb1-8a40-52c2c4bc91f1}, !- Handle
  {b8d30392-29b3-45c6-9922-952e7b26ab47}, !- Name
  {a69134d9-abb6-468d-966c-c22afbb953d3}; !- HVAC Component

OS:Sizing:Zone,
  {bf0d383e-f113-48d4-bea8-4817314f518a}, !- Handle
  {a69134d9-abb6-468d-966c-c22afbb953d3}, !- Zone or ZoneList Name
  SupplyAirTemperature,                   !- Zone Cooling Design Supply Air Temperature Input Method
  14,                                     !- Zone Cooling Design Supply Air Temperature {C}
  11.11,                                  !- Zone Cooling Design Supply Air Temperature Difference {deltaC}
  SupplyAirTemperature,                   !- Zone Heating Design Supply Air Temperature Input Method
  40,                                     !- Zone Heating Design Supply Air Temperature {C}
  11.11,                                  !- Zone Heating Design Supply Air Temperature Difference {deltaC}
  0.0085,                                 !- Zone Cooling Design Supply Air Humidity Ratio {kg-H2O/kg-air}
  0.008,                                  !- Zone Heating Design Supply Air Humidity Ratio {kg-H2O/kg-air}
  ,                                       !- Zone Heating Sizing Factor
  ,                                       !- Zone Cooling Sizing Factor
  DesignDay,                              !- Cooling Design Air Flow Method
  ,                                       !- Cooling Design Air Flow Rate {m3/s}
  ,                                       !- Cooling Minimum Air Flow per Zone Floor Area {m3/s-m2}
  ,                                       !- Cooling Minimum Air Flow {m3/s}
  ,                                       !- Cooling Minimum Air Flow Fraction
  DesignDay,                              !- Heating Design Air Flow Method