
OS:Version,
  {cc9ca49b-fc3f-44c2-9e9f-a27e287968d8}, !- Handle
  1.9.0;                                  !- Version Identifier

OS:Site,
  {b957e33e-d20f-4e84-91df-db98aff57561}, !- Handle
  Phoenix Sky Harbor Intl Ap,             !- Name
  33.45,                                  !- Latitude {deg}
  -111.98,                                !- Longitude {deg}
  -7,                                     !- Time Zone {hr}
  337,                                    !- Elevation {m}
  Suburbs;                                !- Terrain

OS:SimulationControl,
  {0c5e57d2-c7df-4704-8d42-c460026b3c52}, !- Handle
  Yes,                                    !- Do Zone Sizing Calculation
  No,                                     !- Do System Sizing Calculation
  Yes,                                    !- Do Plant Sizing Calculation
  No,                                     !- Run Simulation for Sizing Periods
  Yes,                                    !- Run Simulation for Weather File Run Periods
  0.05,                                   !- Loads Convergence Tolerance Value
  0.05,                                   !- Temperature Convergence Tolerance Value {deltaC}
  FullExterior,                           !- Solar Distribution
  50;                                     !- Maximum Number of Warmup Days

OS:Surface,
  {9e0ac6f6-524a-461e-814a-35758638e1b0}, !- Handle
  Wall15,                                 !- Name
  Wall,                                   !- Surface Type
  ,                                       !- Construction Name
  {71863cbf-432d-422a-8797-73a373adeaca}, !- Space Name
  Outdoors,                               !- Outside Boundary Condition
  ,                                       !- Outside Boundary Condition Object
  SunExposed,                             !- Sun Exposure
  WindExposed,                            !- Wind Exposure
  ,                                       !- View Factor to Ground
  ,                                       !- Number of Vertices
  3.048, 0, 4.2672,                       !- X,Y,Z Vertex 1 {m}
  -0.6096, 0, 2.4384,                     !- X,Y,Z Vertex 2 {m}
  6.7056, 0, 2.4384;                      !- X,Y,Z Vertex 3 {m}

OS:ThermalZone,
  {088bfbf0-fc24-4f33-99f1-181a89f66e58}, !- Handle
  garage Thermal Zone,                    !- Name
  1,                                      !- Multiplier
  4.2672,                                 !- Ceiling Height {m}
  135.9208656,                            !- Volume {m3}
  ,                                       !- Floor Area {m2}
  ,                                       !- Zone Inside Convection Algorithm
  ,                                       !- Zone Outside Convection Algorithm
  ,                                       !- Zone Conditioning Equipment List Name
  {e2ca520a-bcbd-448c-b596-db5b614bbef0}, !- Zone Air Inlet Port List
  {6b90cb67-f85d-4bc4-a8b9-3fc3e98d9883}, !- Zone Air Exhaust Port List
  {d96ba75a-9932-45f1-9474-c1c83105710f}, !- Zone Air Node Name
  ,                                       !- Zone Return Air Node Name
  ,                                       !- Primary Daylighting Control Name
  ,                                       !- Fraction of Zone Controlled by Primary Daylighting Control
  ,                                       !- Secondary Daylighting Control Name
  ,                                       !- Fraction of Zone Controlled by Secondary Daylighting Control
  ,                                       !- Illuminance Map Name
  {c49ec5cf-c199-4ec6-8b83-8503a8f1356b}, !- Group Rendering Name
  ,                                       !- Thermostat Name
  No;                                     !- Use Ideal Air Loads

OS:Node,
  {9c1ae483-00e2-4c65-a0cb-9e973f810f3b}, !- Handle
  {0a3647c4-7d6a-421b-9366-f6cc70633560}, !- Name
  {d96ba75a-9932-45f1-9474-c1c83105710f}, !- Inlet Port
  ;                                       !- Outlet Port

OS:Connection,
  {d96ba75a-9932-45f1-9474-c1c83105710f}, !- Handle
  {1f2a4b4f-045c-47f5-a505-b5af165bc5f8}, !- Name
  {088bfbf0-fc24-4f33-99f1-181a89f66e58}, !- Source Object
  11,                                     !- Outlet Port
  {9c1ae483-00e2-4c65-a0cb-9e973f810f3b}, !- Target Object
  2;                                      !- Inlet Port

OS:PortList,
  {e2ca520a-bcbd-448c-b596-db5b614bbef0}, !- Handle
  {9d745acd-425d-47f8-857c-ab522980d394}, !- Name
  {088bfbf0-fc24-4f33-99f1-181a89f66e58}; !- HVAC Component

OS:PortList,
  {6b90cb67-f85d-4bc4-a8b9-3fc3e98d9883}, !- Handle
  {6a2e6a2e-9cf4-4dd0-ac95-9713bfa9241f}, !- Name
  {088bfbf0-fc24-4f33-99f1-181a89f66e58}; !- HVAC Component

OS:Sizing:Zone,
  {8ee95425-2bd0-436b-a6c8-54f230be1837}, !- Handle
  {088bfbf0-fc24-4f33-99f1-181a89f66e58}, !- Zone or ZoneList Name
  14,                                     !- Zone Cooling Design Supply Air Temperature {C}
  40,                                     !- Zone Heating Design Supply Air Temperature {C}
  0.0085,                                 !- Zone Cooling Design Supply Air Humidity Ratio {kg-H2O/kg-air}
  0.008,                                  !- Zone Heating Design Supply Air Humidity Ratio {kg-H2O/kg-air}
  ,                                       !- Zone Heating Sizing Factor
  ,                                       !- Zone Cooling Sizing Factor
  DesignDay,                              !- Cooling Design Air Flow Method
  ,                                       !- Cooling Design Air Flow Rate {m3/s}
  ,                                       !- Cooling Minimum Air Flow per Zone Floor Area {m3/s-m2}
  ,                                       !- Cooling Minimum Air Flow {m3/s}
  ,                                       !- Cooling Minimum Air Flow Fraction
  DesignDay,                              !- Heating Design Air Flow Method
  ,                                       !- Heating Design Air Flow Rate {m3/s}
  ,                                       !- Heating Maximum Air Flow per Zone Floor Area {m3/s-m2}
  ,                                       !- Heating Maximum Air Flow {m3/s}
  ,                                       !- Heating Maximum Air Flow Fraction
  ,                                       !- Design Zone Air Distribution Effectiveness in Cooling Mode
  ;                                       !- Design Zone Air Distribution Effectiveness in Heating Mode

OS:ZoneHVAC:EquipmentList,
  {d7d8c26c-1072-40ce-a63a-5216497bf1df}, !- Handle
  {ccf96b1f-f034-4bbc-b6d3-0e1946d2f091}, !- Name
  {088bfbf0-fc24-4f33-99f1-181a89f66e58}; !- Thermal Zone

OS:Space,
  {71863cbf-432d-422a-8797-73a373adeaca}, !- Handle
  garage,                                 !- Name
  {2bb707f4-8b93-47ca-8006-d56b70793ef7}, !- Space Type Name
  ,                                       !- Default Construction Set Name
  ,                                       !- Default Schedule Set Name
  0,                                      !- Direction of Relative North {deg}
  -0.1524,                                !- X Origin {m}
  -5.4864,                                !- Y Origin {m}
  0,                                      !- Z Origin {m}
  ,                                       !- Building Story Name
  {088bfbf0-fc24-4f33-99f1-181a89f66e58}, !- Thermal Zone Name
  ,                                       !- Part of Total Floor Area
  ;                                       !- Design Specification Outdoor Air Object Name

OS:Surface,
  {d225709a-af30-4c46-8237-49c0451900a1}, !- Handle
  Roof2,                                  !- Name
  RoofCeiling,                            !- Surface Type
  ,                                       !- Construction Name
  {71863cbf-432d-422a-8797-73a373adeaca}, !- Space Name
  Outdoors,                               !- Outside Boundary Condition
  ,                                       !- Outside Boundary Condition Object
  SunExposed,                             !- Sun Exposure
  WindExposed,                            !- Wind Exposure
  ,                                       !- View Factor to Ground
  ,                                       !- Number of Vertices
  3.048, 3.048, 4.2672,                   !- X,Y,Z Vertex 1 {m}
  0, 3.048, 2.7432,                       !- X,Y,Z Vertex 2 {m}
  0, 0, 2.7432,                           !- X,Y,Z Vertex 3 {m}
  3.048, 0, 4.2672;                       !- X,Y,Z Vertex 4 {m}

OS:Surface,
  {5fc43571-e918-4b9b-ba27-028dd1a315ce}, !- Handle
  Wall6,                                  !- Name
  Wall,                                   !- Surface Type
  ,                                       !- Construction Name
  {778b7fe2-65ca-4b30-929a-b4491657051d}, !- Space Name
  Outdoors,                               !- Outside Boundary Condition
  ,                                       !- Outside Boundary Condition Object
  SunExposed,                             !- Sun Exposure
  WindExposed,                            !- Wind Exposure
  ,                                       !- View Factor to Ground
  ,                                       !- Number of Vertices
  11.8872, 7.9248, 2.4384,                !- X,Y,Z Vertex 1 {m}
  11.8872, 7.9248, 0,                     !- X,Y,Z Vertex 2 {m}
  0, 7.9248, 0,                           !- X,Y,Z Vertex 3 {m}
  0, 7.9248, 2.4384;                      !- X,Y,Z Vertex 4 {m}

OS:ThermalZone,
  {af7e4866-2c93-4658-ba21-4dd7156bd54e}, !- Handle
  living Thermal Zone,                    !- Name
  1,                                      !- Multiplier
  4.8768,                                 !- Ceiling Height {m}
  414.105570528,                          !- Volume {m3}
  ,                                       !- Floor Area {m2}
  ,                                       !- Zone Inside Convection Algorithm
  ,                                       !- Zone Outside Convection Algorithm
  ,                                       !- Zone Conditioning Equipment List Name
  {3ee4d397-20c2-4f99-8a12-bcea899452fe}, !- Zone Air Inlet Port List
  {b8df614f-bdec-4aba-919b-24e497f5921f}, !- Zone Air Exhaust Port List
  {57ba8df7-4892-4ea9-88a1-5ac81c261a55}, !- Zone Air Node Name
  ,                                       !- Zone Return Air Node Name
  ,                                       !- Primary Daylighting Control Name
  ,                                       !- Fraction of Zone Controlled by Primary Daylighting Control
  ,                                       !- Secondary Daylighting Control Name
  ,                                       !- Fraction of Zone Controlled by Secondary Daylighting Control
  ,                                       !- Illuminance Map Name
  {cc084ed6-cd00-4daa-bd5e-014a3b34c626}, !- Group Rendering Name
  ,                                       !- Thermostat Name
  No;                                     !- Use Ideal Air Loads

OS:Node,
  {1afce8b5-f98b-4be9-ad67-2fed43047060}, !- Handle
  {4cbf220f-6d04-42ea-9f22-4ec21a4abf8c}, !- Name
  {57ba8df7-4892-4ea9-88a1-5ac81c261a55}, !- Inlet Port
  ;                                       !- Outlet Port

OS:Connection,
  {57ba8df7-4892-4ea9-88a1-5ac81c261a55}, !- Handle
  {24e4eaac-3a87-49ec-998d-350cc72b328e}, !- Name
  {af7e4866-2c93-4658-ba21-4dd7156bd54e}, !- Source Object
  11,                                     !- Outlet Port
  {1afce8b5-f98b-4be9-ad67-2fed43047060}, !- Target Object
  2;                                      !- Inlet Port

OS:PortList,
  {3ee4d397-20c2-4f99-8a12-bcea899452fe}, !- Handle
  {5cad9d60-4c3c-4f9f-9daf-7db35f6353f0}, !- Name
  {af7e4866-2c93-4658-ba21-4dd7156bd54e}; !- HVAC Component

OS:PortList,
  {b8df614f-bdec-4aba-919b-24e497f5921f}, !- Handle
  {4ed687ba-e70a-4c8e-a8ae-7de48691af09}, !- Name
  {af7e4866-2c93-4658-ba21-4dd7156bd54e}; !- HVAC Component

OS:Sizing:Zone,
  {aee6d9da-28c7-4077-aeae-0781e987927e}, !- Handle
  {af7e4866-2c93-4658-ba21-4dd7156bd54e}, !- Zone or ZoneList Name
  14,                                     !- Zone Cooling Design Supply Air Temperature {C}
  40,                                     !- Zone Heating Design Supply Air Temperature {C}
  0.0085,                                 !- Zone Cooling Design Supply Air Humidity Ratio {kg-H2O/kg-air}
  0.008,                                  !- Zone Heating Design Supply Air Humidity Ratio {kg-H2O/kg-air}
  ,                                       !- Zone Heating Sizing Factor
  ,                                       !- Zone Cooling Sizing Factor
  DesignDay,                              !- Cooling Design Air Flow Method
  ,                                       !- Cooling Design Air Flow Rate {m3/s}
  ,                                       !- Cooling Minimum Air Flow per Zone Floor Area {m3/s-m2}
  ,                                       !- Cooling Minimum Air Flow {m3/s}
  ,                                       !- Cooling Minimum Air Flow Fraction
  DesignDay,                              !- Heating Design Air Flow Method
  ,                                       !- Heating Design Air Flow Rate {m3/s}
  ,                                       !- Heating Maximum Air Flow per Zone Floor Area {m3/s-m2}
  ,                                       !- Heating Maximum Air Flow {m3/s}
  ,                                       !- Heating Maximum Air Flow Fraction
  ,                                       !- Design Zone Air Distribution Effectiveness in Cooling Mode
  ;                                       !- Design Zone Air Distribution Effectiveness in Heating Mode

OS:ZoneHVAC:EquipmentList,
  {f0ade978-2aa1-42c2-b841-2ff1ba1b223b}, !- Handle
  {9b9faad7-5a5a-4c9a-911e-57b8e32c2656}, !- Name
  {af7e4866-2c93-4658-ba21-4dd7156bd54e}; !- Thermal Zone

OS:Space,
  {778b7fe2-65ca-4b30-929a-b4491657051d}, !- Handle
  living,                                 !- Name
  {1b5ce87d-677f-4937-b358-1da5a56d5655}, !- Space Type Name
  ,                                       !- Default Construction Set Name
  ,                                       !- Default Schedule Set Name
  0,                                      !- Direction of Relative North {deg}
  -5.9436,                                !- X Origin {m}
  -2.4384,                                !- Y Origin {m}
  0,                                      !- Z Origin {m}
  ,                                       !- Building Story Name
  {af7e4866-2c93-4658-ba21-4dd7156bd54e}, !- Thermal Zone Name
  ,                                       !- Part of Total Floor Area
  ;                                       !- Design Specification Outdoor Air Object Name

OS:Surface,
  {5723dd49-9caa-43bf-996a-3aa03865c28b}, !- Handle
  Floor5,                                 !- Name
  Floor,                                  !- Surface Type
  ,                                       !- Construction Name
  {eaa8210a-e5e7-4837-bc75-21867d83a241}, !- Space Name
  Surface,                                !- Outside Boundary Condition
  {779874e5-537b-47ca-8a39-82b3fdd8ae0a}, !- Outside Boundary Condition Object
  NoSun,                                  !- Sun Exposure
  NoWind,                                 !- Wind Exposure
  0,                                      !- View Factor to Ground
  ,                                       !- Number of Vertices
  11.8872, 7.9248, 0,                     !- X,Y,Z Vertex 1 {m}
  11.8872, 0, 0,                          !- X,Y,Z Vertex 2 {m}
  0, 0, 0,                                !- X,Y,Z Vertex 3 {m}
  0, 7.9248, 0;                           !- X,Y,Z Vertex 4 {m}

OS:ThermalZone,
  {2c7fecaa-fcd7-4835-96b4-b3bcefca8dc8}, !- Handle
  unfinishedattic Thermal Zone,           !- Name
  ,                                       !- Multiplier
  2.286,                                  !- Ceiling Height {m}
  93.3181692885,                          !- Volume {m3}
  ,                                       !- Floor Area {m2}
  ,                                       !- Zone Inside Convection Algorithm
  ,                                       !- Zone Outside Convection Algorithm
  ,                                       !- Zone Conditioning Equipment List Name
  {e9b4208c-ea65-47f7-be98-33b1adba0f01}, !- Zone Air Inlet Port List
  {f70fd6f0-6429-4dbe-8369-ab053e95a1ee}, !- Zone Air Exhaust Port List
  {feb8ebb6-454a-4dc3-92f5-7a86669650e7}, !- Zone Air Node Name
  ,                                       !- Zone Return Air Node Name
  ,                                       !- Primary Daylighting Control Name
  ,                                       !- Fraction of Zone Controlled by Primary Daylighting Control
  ,                                       !- Secondary Daylighting Control Name
  ,                                       !- Fraction of Zone Controlled by Secondary Daylighting Control
  ,                                       !- Illuminance Map Name
  {7f149b2f-6619-4495-aa7d-dbff90e207e4}, !- Group Rendering Name
  ,                                       !- Thermostat Name
  No;                                     !- Use Ideal Air Loads

OS:Node,
  {600c5a80-cce4-4a36-82bd-5ec8603507a1}, !- Handle
  {c8e38f64-a23f-4ac3-b5de-93c718dbea46}, !- Name
  {feb8ebb6-454a-4dc3-92f5-7a86669650e7}, !- Inlet Port
  ;                                       !- Outlet Port

OS:Connection,
  {feb8ebb6-454a-4dc3-92f5-7a86669650e7}, !- Handle
  {96cc5a1c-6995-404d-90be-bcc9289fe4a7}, !- Name
  {2c7fecaa-fcd7-4835-96b4-b3bcefca8dc8}, !- Source Object
  11,                                     !- Outlet Port
  {600c5a80-cce4-4a36-82bd-5ec8603507a1}, !- Target Object
  2;                                      !- Inlet Port

OS:PortList,
  {e9b4208c-ea65-47f7-be98-33b1adba0f01}, !- Handle
  {b4da854a-5490-4762-bd7a-58229722c84b}, !- Name
  {2c7fecaa-fcd7-4835-96b4-b3bcefca8dc8}; !- HVAC Component

OS:PortList,
  {f70fd6f0-6429-4dbe-8369-ab053e95a1ee}, !- Handle
  {69f9c084-f904-4d76-8e92-56711cc1aa84}, !- Name
  {2c7fecaa-fcd7-4835-96b4-b3bcefca8dc8}; !- HVAC Component

OS:Sizing:Zone,
  {2ac7c7de-e2b1-4018-9ee3-bad386d3416d}, !- Handle
  {2c7fecaa-fcd7-4835-96b4-b3bcefca8dc8}, !- Zone or ZoneList Name
  14,                                     !- Zone Cooling Design Supply Air Temperature {C}
  40,                                     !- Zone Heating Design Supply Air Temperature {C}
  0.0085,                                 !- Zone Cooling Design Supply Air Humidity Ratio {kg-H2O/kg-air}
  0.008,                                  !- Zone Heating Design Supply Air Humidity Ratio {kg-H2O/kg-air}
  ,                                       !- Zone Heating Sizing Factor
  ,                                       !- Zone Cooling Sizing Factor
  DesignDay,                              !- Cooling Design Air Flow Method
  ,                                       !- Cooling Design Air Flow Rate {m3/s}
  ,                                       !- Cooling Minimum Air Flow per Zone Floor Area {m3/s-m2}
  ,                                       !- Cooling Minimum Air Flow {m3/s}
  ,                                       !- Cooling Minimum Air Flow Fraction
  DesignDay,                              !- Heating Design Air Flow Method
  ,                                       !- Heating Design Air Flow Rate {m3/s}
  ,                                       !- Heating Maximum Air Flow per Zone Floor Area {m3/s-m2}
  ,                                       !- Heating Maximum Air Flow {m3/s}
  ,                                       !- Heating Maximum Air Flow Fraction
  ,                                       !- Design Zone Air Distribution Effectiveness in Cooling Mode
  ;                                       !- Design Zone Air Distribution Effectiveness in Heating Mode

OS:ZoneHVAC:EquipmentList,
  {c7848e0d-67da-4df5-8431-3b59923cf9dc}, !- Handle
  {b6b7b72b-c42b-4126-950a-14031582c710}, !- Name
  {2c7fecaa-fcd7-4835-96b4-b3bcefca8dc8}; !- Thermal Zone

OS:Space,
  {eaa8210a-e5e7-4837-bc75-21867d83a241}, !- Handle
  unfinishedattic,                        !- Name
  {052b9609-8d49-49c9-9fb0-cd2b7c0c1fb2}, !- Space Type Name
  ,                                       !- Default Construction Set Name
  ,                                       !- Default Schedule Set Name
  0,                                      !- Direction of Relative North {deg}
  -5.9436,                                !- X Origin {m}
  -2.4384,                                !- Y Origin {m}
  4.8768,                                 !- Z Origin {m}
  ,                                       !- Building Story Name
  {2c7fecaa-fcd7-4835-96b4-b3bcefca8dc8}, !- Thermal Zone Name
  ,                                       !- Part of Total Floor Area
  ;                                       !- Design Specification Outdoor Air Object Name

OS:Surface,
  {b1380fff-7636-441e-a12d-1f6f9b1a603a}, !- Handle
  IntWall12,                              !- Name
  Wall,                                   !- Surface Type
  ,                                       !- Construction Name
  {71863cbf-432d-422a-8797-73a373adeaca}, !- Space Name
  Surface,                                !- Outside Boundary Condition
  {834abd84-b0fb-4806-8ac2-213988add87b}, !- Outside Boundary Condition Object
  NoSun,                                  !- Sun Exposure
  NoWind,                                 !- Wind Exposure
  0,                                      !- View Factor to Ground
  ,                                       !- Number of Vertices
  3.048, 3.048, 4.2672,                   !- X,Y,Z Vertex 1 {m}
  6.096, 3.048, 2.7432,                   !- X,Y,Z Vertex 2 {m}
  6.096, 3.048, 2.4384,                   !- X,Y,Z Vertex 3 {m}
  0, 3.048, 2.4384,                       !- X,Y,Z Vertex 4 {m}
  0, 3.048, 2.7432;                       !- X,Y,Z Vertex 5 {m}

OS:Surface,
  {a3653adf-9cc4-4917-8875-33f3d3ab13ba}, !- Handle
  Wall8,                                  !- Name
  Wall,                                   !- Surface Type
  ,                                       !- Construction Name
  {71863cbf-432d-422a-8797-73a373adeaca}, !- Space Name
  Outdoors,                               !- Outside Boundary Condition
  ,                                       !- Outside Boundary Condition Object
  SunExposed,                             !- Sun Exposure
  WindExposed,                            !- Wind Exposure
  ,                                       !- View Factor to Ground
  ,                                       !- Number of Vertices
  0, 0, 2.4384,                           !- X,Y,Z Vertex 1 {m}
  0, 0, 0,                                !- X,Y,Z Vertex 2 {m}
  6.096, 0, 0,                            !- X,Y,Z Vertex 3 {m}
  6.096, 0, 2.4384;                       !- X,Y,Z Vertex 4 {m}

OS:Surface,
  {ac633013-f7fb-48f6-914d-92029030962b}, !- Handle
  Wall2,                                  !- Name
  Wall,                                   !- Surface Type
  ,                                       !- Construction Name
  {778b7fe2-65ca-4b30-929a-b4491657051d}, !- Space Name
  Outdoors,                               !- Outside Boundary Condition
  ,                                       !- Outside Boundary Condition Object
  SunExposed,                             !- Sun Exposure
  WindExposed,                            !- Wind Exposure
  ,                                       !- View Factor to Ground
  ,                                       !- Number of Vertices
  0, 0, 2.4384,                           !- X,Y,Z Vertex 1 {m}
  0, 0, 0,                                !- X,Y,Z Vertex 2 {m}
  5.7912, 0, 0,                           !- X,Y,Z Vertex 3 {m}
  5.7912, 0, 2.4384;                      !- X,Y,Z Vertex 4 {m}

OS:SubSurface,
  {1cbb3d58-a376-42c2-afb3-9ec711f12129}, !- Handle
  Wall11-Window3,                         !- Name
  FixedWindow,                            !- Sub Surface Type
  ,                                       !- Construction Name
  {5536e3f8-2c20-481e-a93a-d020121c031f}, !- Surface Name
  ,                                       !- Outside Boundary Condition Object
  0.5,                                    !- View Factor to Ground
  ,                                       !- Shading Control Name
  ,                                       !- Frame and Divider Name
  1,                                      !- Multiplier
  ,                                       !- Number of Vertices
  3.88112008128, 0, 4.572,                !- X,Y,Z Vertex 1 {m}
  3.88112008128, 0, 3.531958904064,       !- X,Y,Z Vertex 2 {m}
  4.661346002664, 0, 3.531958904064,      !- X,Y,Z Vertex 3 {m}
  4.661346002664, 0, 4.572;               !- X,Y,Z Vertex 4 {m}

OS:Surface,
  {5536e3f8-2c20-481e-a93a-d020121c031f}, !- Handle
  Wall11,                                 !- Name
  Wall,                                   !- Surface Type
  ,                                       !- Construction Name
  {778b7fe2-65ca-4b30-929a-b4491657051d}, !- Space Name
  Outdoors,                               !- Outside Boundary Condition
  ,                                       !- Outside Boundary Condition Object
  SunExposed,                             !- Sun Exposure
  WindExposed,                            !- Wind Exposure
  ,                                       !- View Factor to Ground
  ,                                       !- Number of Vertices
  0, 0, 4.8768,                           !- X,Y,Z Vertex 1 {m}
  0, 0, 2.4384,                           !- X,Y,Z Vertex 2 {m}
  5.7912, 0, 2.4384,                      !- X,Y,Z Vertex 3 {m}
  5.7912, 0, 4.8768;                      !- X,Y,Z Vertex 4 {m}

OS:Building,
  {d9ca5ec3-dc13-475e-b961-08bcbce1e1d7}, !- Handle
  Phoenix Sky Harbor Intl Ap AZ 1828 sqft, !- Name
  ,                                       !- Building Sector Type
  180,                                    !- North Axis {deg}
  ,                                       !- Nominal Floor to Floor Height {m}
  ,                                       !- Space Type Name
  ,                                       !- Default Construction Set Name
  ,                                       !- Default Schedule Set Name
  ,                                       !- Standards Number of Stories
  ,                                       !- Standards Number of Above Ground Stories
  ,                                       !- Standards Building Type
  ,                                       !- Standards Number of Living Units
  ,                                       !- Relocatable
  ;                                       !- Nominal Floor to Ceiling Height {m}

OS:SubSurface,
  {37122fae-3597-43ac-8523-9c6a317d614c}, !- Handle
  Wall1-Window3,                          !- Name
  FixedWindow,                            !- Sub Surface Type
  ,                                       !- Construction Name
  {9f438aac-d9b7-4498-882d-7429e5fc80ce}, !- Surface Name
  ,                                       !- Outside Boundary Condition Object
  0.5,                                    !- View Factor to Ground
  ,                                       !- Shading Control Name
  ,                                       !- Frame and Divider Name
  1,                                      !- Multiplier
  ,                                       !- Number of Vertices
  0, 2.62128, 2.1336,                     !- X,Y,Z Vertex 1 {m}
  0, 2.62128, 1.086708524064,             !- X,Y,Z Vertex 2 {m}
  0, 1.835915001264, 1.086708524064,      !- X,Y,Z Vertex 3 {m}
  0, 1.835915001264, 2.1336;              !- X,Y,Z Vertex 4 {m}

OS:Surface,
  {9f438aac-d9b7-4498-882d-7429e5fc80ce}, !- Handle
  Wall1,                                  !- Name
  Wall,                                   !- Surface Type
  ,                                       !- Construction Name
  {778b7fe2-65ca-4b30-929a-b4491657051d}, !- Space Name
  Outdoors,                               !- Outside Boundary Condition
  ,                                       !- Outside Boundary Condition Object
  SunExposed,                             !- Sun Exposure
  WindExposed,                            !- Wind Exposure
  ,                                       !- View Factor to Ground
  ,                                       !- Number of Vertices
  0, 7.9248, 2.4384,                      !- X,Y,Z Vertex 1 {m}
  0, 7.9248, 0,                           !- X,Y,Z Vertex 2 {m}
  0, 0, 0,                                !- X,Y,Z Vertex 3 {m}
  0, 0, 2.4384;                           !- X,Y,Z Vertex 4 {m}

OS:SubSurface,
  {3ad3db46-47f1-4783-a377-829c1b5ba303}, !- Handle
  Wall1-Window1,                          !- Name
  FixedWindow,                            !- Sub Surface Type
  ,                                       !- Construction Name
  {9f438aac-d9b7-4498-882d-7429e5fc80ce}, !- Surface Name
  ,                                       !- Outside Boundary Condition Object
  0.5,                                    !- View Factor to Ground
  ,                                       !- Shading Control Name
  ,                                       !- Frame and Divider Name
  1,                                      !- Multiplier
  ,                                       !- Number of Vertices
  0, 6.0888850536, 2.1336,                !- X,Y,Z Vertex 1 {m}
  0, 6.0888850536, 1.086708524064,        !- X,Y,Z Vertex 2 {m}
  0, 5.303520054864, 1.086708524064,      !- X,Y,Z Vertex 3 {m}
  0, 5.303520054864, 2.1336;              !- X,Y,Z Vertex 4 {m}

OS:Surface,
  {4c1e0143-ed75-45b4-8756-61def670c49f}, !- Handle
  Wall9,                                  !- Name
  Wall,                                   !- Surface Type
  ,                                       !- Construction Name
  {71863cbf-432d-422a-8797-73a373adeaca}, !- Space Name
  Outdoors,                               !- Outside Boundary Condition
  ,                                       !- Outside Boundary Condition Object
  SunExposed,                             !- Sun Exposure
  WindExposed,                            !- Wind Exposure
  ,                                       !- View Factor to Ground
  ,                                       !- Number of Vertices
  6.096, 0, 2.4384,                       !- X,Y,Z Vertex 1 {m}