
OS:Version,
  {bb317caf-c5e8-4405-b189-4ea646a29f0c}, !- Handle
  1.3.1;                                  !- Version Identifier

OS:Construction,
  {9e3df0c5-f276-451e-aa28-1b8123c164e3}, !- Handle
  ExtInsFinWall,                          !- Name
  ,                                       !- Surface Rendering Name
  {c0dc241f-8725-4187-8bd2-0b44aa7c0bbb}, !- Layer 1
  {1e2c3996-ae90-47f7-81f2-ef6d8dd74362}, !- Layer 2
  {37192232-3e9b-4f9e-9359-aed318063c32}, !- Layer 3
  {3bc0b2fd-ff49-4971-b1e5-4d0aa3bf7f91}; !- Layer 4

OS:Material,
  {c0dc241f-8725-4187-8bd2-0b44aa7c0bbb}, !- Handle
  Exterior_Finish_Vinyl_Light,            !- Name
  Rough,                                  !- Roughness
  0.009525,                               !- Thickness {m}
  0.089435,                               !- Conductivity {W/m-K}
  177.822,                                !- Density {kg/m3}
  1046.75,                                !- Specific Heat {J/kg-K}
  0.9,                                    !- Thermal Absorptance
  0.3,                                    !- Solar Absorptance
  0.3;                                    !- Visible Absorptance

OS:Material,
  {1e2c3996-ae90-47f7-81f2-ef6d8dd74362}, !- Handle
  Plywood_1_2in,                          !- Name
  Rough,                                  !- Roughness
  0.0127,                                 !- Thickness {m}
  0.1154577,                              !- Conductivity {W/m-K}
  512.64,                                 !- Density {kg/m3}
  1214.23;                                !- Specific Heat {J/kg-K}

OS:Material,
  {3bc0b2fd-ff49-4971-b1e5-4d0aa3bf7f91}, !- Handle
  GypsumBoard_1_2in,                      !- Name
  Rough,                                  !- Roughness
  0.0127,                                 !- Thickness {m}
  0.1602906,                              !- Conductivity {W/m-K}
  801,                                    !- Density {kg/m3}
  837.4;                                  !- Specific Heat {J/kg-K}

OS:Material,
  {37192232-3e9b-4f9e-9359-aed318063c32}, !- Handle
  StudandCavity,                          !- Name
  Rough,                                  !- Roughness
  0.0889,                                 !- Thickness {m}
  0.0542450177597404,                     !- Conductivity {W/m-K}
  162.40275,                              !- Density {kg/m3}
  1178.91670776818;                       !- Specific Heat {J/kg-K}

