
OS:Version,
  {bee0e3d2-cf12-44a3-b3aa-fa4c33086098}, !- Handle
  1.3.1;                                  !- Version Identifier

OS:Construction,
  {5068af6d-804e-42f2-8d91-eab1e7f94c37}, !- Handle
  ExtInsFinWall,                          !- Name
  ,                                       !- Surface Rendering Name
  {b9bea260-3017-4ac0-9d63-a2492b3039e3}, !- Layer 1
  {1f55db56-ab50-4575-be7c-2e14e328b61c}, !- Layer 2
  {9588ba5e-5102-4a66-a41d-2f6f46770b80}, !- Layer 3
  {cd632c0e-8d9b-4005-b9bb-a9d7b68f02f9}; !- Layer 4

OS:Material,
  {b9bea260-3017-4ac0-9d63-a2492b3039e3}, !- Handle
  Exterior_Finish_Vinyl_Light,            !- Name
  Rough,                                  !- Roughness
  0.009525,                               !- Thickness {m}
  0.089435,                               !- Conductivity {W/m-K}
  177.822,                                !- Density {kg/m3}
  1046.75,                                !- Specific Heat {J/kg-K}
  0.9,                                    !- Thermal Absorptance
  0.3,                                    !- Solar Absorptance
  0.3;                                    !- Visible Absorptance

OS:Material,
  {1f55db56-ab50-4575-be7c-2e14e328b61c}, !- Handle
  Plywood_1_2in,                          !- Name
  Rough,                                  !- Roughness
  0.0127,                                 !- Thickness {m}
  0.1154577,                              !- Conductivity {W/m-K}
  512.64,                                 !- Density {kg/m3}
  1214.23;                                !- Specific Heat {J/kg-K}

OS:Material,
  {cd632c0e-8d9b-4005-b9bb-a9d7b68f02f9}, !- Handle
  GypsumBoard_1_2in,                      !- Name
  Rough,                                  !- Roughness
  0.0127,                                 !- Thickness {m}
  0.1602906,                              !- Conductivity {W/m-K}
  801,                                    !- Density {kg/m3}
  837.4;                                  !- Specific Heat {J/kg-K}

OS:Material,
  {9588ba5e-5102-4a66-a41d-2f6f46770b80}, !- Handle
  StudandCavity,                          !- Name
  Rough,                                  !- Roughness
  0.1397,                                 !- Thickness {m}
  0.0491910229788441,                     !- Conductivity {W/m-K}
  146.659084512211,                       !- Density {kg/m3}
  1175.52881850606;                       !- Specific Heat {J/kg-K}

