
OS:Version,
  {6f2b949f-e523-438a-977d-99ec89417fc2}, !- Handle
  1.3.1;                                  !- Version Identifier

OS:Construction,
  {e1076066-8861-40a2-b6a2-6284d429b5ae}, !- Handle
  ExtInsFinWall,                          !- Name
  ,                                       !- Surface Rendering Name
  {ad352f9b-5956-45e1-b112-6aaba2d3998f}, !- Layer 1
  {dadd99ed-adfe-4f43-8b52-04cfb3e95161}, !- Layer 2
  {9a9e8706-6d7e-403a-9289-958f89e8660f}, !- Layer 3
  {4f6436e8-9bbf-4bda-8162-0cda439b1f6f}; !- Layer 4

OS:Material,
  {ad352f9b-5956-45e1-b112-6aaba2d3998f}, !- Handle
  Exterior_Finish_Vinyl_Light,            !- Name
  Rough,                                  !- Roughness
  0.009525,                               !- Thickness {m}
  0.089435,                               !- Conductivity {W/m-K}
  177.822,                                !- Density {kg/m3}
  1046.75,                                !- Specific Heat {J/kg-K}
  0.9,                                    !- Thermal Absorptance
  0.3,                                    !- Solar Absorptance
  0.3;                                    !- Visible Absorptance

OS:Material,
  {dadd99ed-adfe-4f43-8b52-04cfb3e95161}, !- Handle
  Plywood_1_2in,                          !- Name
  Rough,                                  !- Roughness
  0.0127,                                 !- Thickness {m}
  0.1154577,                              !- Conductivity {W/m-K}
  512.64,                                 !- Density {kg/m3}
  1214.23;                                !- Specific Heat {J/kg-K}

OS:Material,
  {4f6436e8-9bbf-4bda-8162-0cda439b1f6f}, !- Handle
  GypsumBoard_1_2in,                      !- Name
  Rough,                                  !- Roughness
  0.0127,                                 !- Thickness {m}
  0.1602906,                              !- Conductivity {W/m-K}
  801,                                    !- Density {kg/m3}
  837.4;                                  !- Specific Heat {J/kg-K}

OS:Material,
  {9a9e8706-6d7e-403a-9289-958f89e8660f}, !- Handle
  StudandCavity,                          !- Name
  Rough,                                  !- Roughness
  0.1397,                                 !- Thickness {m}
  0.0597826838505769,                     !- Conductivity {W/m-K}
  147.699589804884,                       !- Density {kg/m3}
  1174.62950532575;                       !- Specific Heat {J/kg-K}

