
OS:Version,
  {f4ec4850-a4e6-4e80-9bd5-3f73d0bcd29b}, !- Handle
  1.3.1;                                  !- Version Identifier

OS:WindowMaterial:SimpleGlazingSystem,
  {200e1756-cb33-486f-80b0-b209bede8e3d}, !- Handle
  Double-Pane Glass,                      !- Name
  4.29951666679608,                       !- U-Factor {W/m2-K}
  0.67085832508145;                       !- Solar Heat Gain Coefficient

OS:Construction,
  {bd9c015f-b96e-4074-9205-cbffe6ffeedf}, !- Handle
  Double-Pane Clear Metal Frame Air Fill, !- Name
  ,                                       !- Surface Rendering Name
  {200e1756-cb33-486f-80b0-b209bede8e3d}; !- Layer 1

OS:StandardsInformation:Construction,
  {bdd56024-4f9d-4c5c-b6f1-aace5b4f1d6b}, !- Handle
  {bd9c015f-b96e-4074-9205-cbffe6ffeedf}, !- Construction Name
  ExteriorWindow;                         !- Intended Surface Type

