
OS:Version,
  {c0bd09ac-c979-4ae9-9282-6b4c524dcda4}, !- Handle
  1.3.1;                                  !- Version Identifier

OS:Construction,
  {a80c8240-2d11-404f-bd9e-ea083f20538f}, !- Handle
  Double-Pane Clear Metal Frame Air Fill, !- Name
  ,                                       !- Surface Rendering Name
  {80e7b413-0608-4e14-96b1-fc532a16c3b5}; !- Layer 1

OS:WindowMaterial:SimpleGlazingSystem,
  {80e7b413-0608-4e14-96b1-fc532a16c3b5}, !- Handle
  Double-Pane Glass,                      !- Name
  4.29951666679608,                       !- U-Factor {W/m2-K}
  0.67085832508145;                       !- Solar Heat Gain Coefficient

OS:StandardsInformation:Construction,
  {2e90b3ca-bf1f-45ee-b428-68b3daa71d43}, !- Handle
  {a80c8240-2d11-404f-bd9e-ea083f20538f}, !- Construction Name
  ExteriorWindow;                         !- Intended Surface Type

OS:ComponentData,
  {2f1243e5-0648-4695-ad45-66d6e13929e0}, !- Handle
  Component Data 1,                       !- Name
  {7e17f6f9-b258-4fe8-934b-b1144e214e9a}, !- UUID
  {0391f03f-be17-42ec-8c09-a35249c20f81}, !- Version UUID
  1406055300,                             !- Creation Timestamp
  1406055300,                             !- Version Timestamp
  {a80c8240-2d11-404f-bd9e-ea083f20538f}, !- Name of Object 1
  {80e7b413-0608-4e14-96b1-fc532a16c3b5}, !- Name of Object 2
  {2e90b3ca-bf1f-45ee-b428-68b3daa71d43}; !- Name of Object 3

