
OS:Version,
  {aced6fd0-103c-48e9-b495-07e54f5cf6b6}, !- Handle
  1.3.1;                                  !- Version Identifier

OS:Construction,
  {d12da0a8-1788-4735-afa9-1713cb0d5fd8}, !- Handle
  CSRimJoist,                             !- Name
  ,                                       !- Surface Rendering Name
  {099c6b61-48a2-4cfc-b597-0148339f4a10}, !- Layer 1
  {a2dde237-2ee7-4842-a816-7cf1ea077ae3}, !- Layer 2
  {6c7ba0ee-b87b-4a61-a1fa-30f1c6e084d9}; !- Layer 3

OS:Material,
  {099c6b61-48a2-4cfc-b597-0148339f4a10}, !- Handle
  Exterior_Finish_Vinyl_Light,            !- Name
  Rough,                                  !- Roughness
  0.009525,                               !- Thickness {m}
  0.089435,                               !- Conductivity {W/m-K}
  177.822,                                !- Density {kg/m3}
  1046.75,                                !- Specific Heat {J/kg-K}
  0.9,                                    !- Thermal Absorptance
  0.3,                                    !- Solar Absorptance
  0.3;                                    !- Visible Absorptance

OS:Material,
  {a2dde237-2ee7-4842-a816-7cf1ea077ae3}, !- Handle
  Plywood_3_2in,                          !- Name
  Rough,                                  !- Roughness
  0.0381,                                 !- Thickness {m}
  0.1154577,                              !- Conductivity {W/m-K}
  512.64,                                 !- Density {kg/m3}
  1214.23;                                !- Specific Heat {J/kg-K}

OS:Material,
  {6c7ba0ee-b87b-4a61-a1fa-30f1c6e084d9}, !- Handle
  CSJoistandCavity,                       !- Name
  Rough,                                  !- Roughness
  0.23495,                                !- Thickness {m}
  0.0639116675350494,                     !- Conductivity {W/m-K}
  108.738954,                             !- Density {kg/m3}
  1149.39401785582;                       !- Specific Heat {J/kg-K}

