
OS:Version,
  {197a22d4-914b-4b10-a311-ce37637a7a8c}, !- Handle
  1.3.1;                                  !- Version Identifier

OS:Construction,
  {53fb41cc-f43e-4671-84dd-ef681e446b2d}, !- Handle
  ExtInsFinWall,                          !- Name
  ,                                       !- Surface Rendering Name
  {f611d991-3f76-493a-b668-8b24e2e4f006}, !- Layer 1
  {278d83a9-8a8b-4314-9e9b-af1d4b3c51ac}, !- Layer 2
  {b0ce7ef4-fa76-46ea-bd60-d41da82f3faf}, !- Layer 3
  {720f8772-d5c1-4e3f-9967-834ef12c96bb}; !- Layer 4

OS:Material,
  {f611d991-3f76-493a-b668-8b24e2e4f006}, !- Handle
  Exterior_Finish_Vinyl_Light,            !- Name
  Rough,                                  !- Roughness
  0.009525,                               !- Thickness {m}
  0.089435,                               !- Conductivity {W/m-K}
  177.822,                                !- Density {kg/m3}
  1046.75,                                !- Specific Heat {J/kg-K}
  0.9,                                    !- Thermal Absorptance
  0.3,                                    !- Solar Absorptance
  0.3;                                    !- Visible Absorptance

OS:Material,
  {278d83a9-8a8b-4314-9e9b-af1d4b3c51ac}, !- Handle
  Plywood_1_2in,                          !- Name
  Rough,                                  !- Roughness
  0.0127,                                 !- Thickness {m}
  0.1154577,                              !- Conductivity {W/m-K}
  512.64,                                 !- Density {kg/m3}
  1214.23;                                !- Specific Heat {J/kg-K}

OS:Material,
  {720f8772-d5c1-4e3f-9967-834ef12c96bb}, !- Handle
  GypsumBoard_1_2in,                      !- Name
  Rough,                                  !- Roughness
  0.0127,                                 !- Thickness {m}
  0.1602906,                              !- Conductivity {W/m-K}
  801,                                    !- Density {kg/m3}
  837.4;                                  !- Specific Heat {J/kg-K}

OS:Material,
  {b0ce7ef4-fa76-46ea-bd60-d41da82f3faf}, !- Handle
  StudandCavity,                          !- Name
  Rough,                                  !- Roughness
  0.0889,                                 !- Thickness {m}
  0.0569424553543112,                     !- Conductivity {W/m-K}
  161.735759427773,                       !- Density {kg/m3}
  1179.45713225292;                       !- Specific Heat {J/kg-K}

