
OS:Version,
  {f3784d1d-c767-4846-b222-6dd21b53368f}, !- Handle
  1.13.1;                                 !- Version Identifier

OS:Building,
  {bf305633-c5a1-4881-9edf-ca5e1a8e1274}, !- Handle
  Building,                               !- Name
  ,                                       !- Building Sector Type
  ,                                       !- North Axis {deg}
  ,                                       !- Nominal Floor to Floor Height {m}
  ,                                       !- Space Type Name
  ,                                       !- Default Construction Set Name
  ,                                       !- Default Schedule Set Name
  ,                                       !- Standards Number of Stories
  ,                                       !- Standards Number of Above Ground Stories
  ,                                       !- Standards Building Type
  1;                                      !- Standards Number of Living Units

OS:SimulationControl,
  {2c487a4c-bac9-4ac5-b669-1e49d9da7c2b}, !- Handle
  ,                                       !- Do Zone Sizing Calculation
  ,                                       !- Do System Sizing Calculation
  ,                                       !- Do Plant Sizing Calculation
  No,                                     !- Run Simulation for Sizing Periods
  ;                                       !- Run Simulation for Weather File Run Periods

OS:Timestep,
  {4ebc9f1e-4707-402e-9844-67eb1ffbd522}, !- Handle
  6;                                      !- Number of Timesteps per Hour

OS:RunPeriod,
  {28df894d-6af9-4fb8-8f56-df1753344aa3}, !- Handle
  Run Period,                             !- Name
  1,                                      !- Begin Month
  1,                                      !- Begin Day of Month
  12,                                     !- End Month
  31,                                     !- End Day of Month
  ,                                       !- Use Weather File Holidays and Special Days
  ,                                       !- Use Weather File Daylight Saving Period
  ,                                       !- Apply Weekend Holiday Rule
  ,                                       !- Use Weather File Rain Indicators
  ,                                       !- Use Weather File Snow Indicators
  ;                                       !- Number of Times Runperiod to be Repeated

OS:Sizing:Parameters,
  {dde5af6f-7923-4600-a28a-7556673a0266}, !- Handle
  1.0,                                    !- Heating Sizing Factor
  1.0;                                    !- Cooling Sizing Factor

OS:ShadowCalculation,
  {ca758bea-4416-4626-9bba-3d8795c79bd6}, !- Handle
  20,                                     !- Calculation Frequency
  200;                                    !- Maximum Figures in Shadow Overlap Calculations

OS:SurfaceConvectionAlgorithm:Inside,
  {aaabfc36-718a-4ab0-b622-f186ebb45230}, !- Handle
  TARP;                                   !- Algorithm

OS:SurfaceConvectionAlgorithm:Outside,
  {9a0a9f6f-4bbd-4b12-a121-9492a1fcd7d6}, !- Handle
  DOE-2;                                  !- Algorithm

OS:HeatBalanceAlgorithm,
  {9d93e563-e1e0-46d7-9e39-d1c8aceb7212}, !- Handle
  ConductionTransferFunction,             !- Algorithm
  200;                                    !- Surface Temperature Upper Limit {C}

OS:ZoneCapacitanceMultiplier:ResearchSpecial,
  {6bfced16-b16f-47f6-8223-f7e267d75d19}, !- Handle
  ,                                       !- Temperature Capacity Multiplier
  15,                                     !- Humidity Capacity Multiplier
  ;                                       !- Carbon Dioxide Capacity Multiplier

OS:ThermalZone,
  {0780f4b3-626f-4114-af11-efc889e1f6dd}, !- Handle
  living zone,                            !- Name
  ,                                       !- Multiplier
  ,                                       !- Ceiling Height {m}
  ,                                       !- Volume {m3}
  ,                                       !- Floor Area {m2}
  ,                                       !- Zone Inside Convection Algorithm
  ,                                       !- Zone Outside Convection Algorithm
  ,                                       !- Zone Conditioning Equipment List Name
  {8caea261-2949-4874-a751-6622b0456514}, !- Zone Air Inlet Port List
  {605e6f01-739f-4e18-b49c-6e2cd2dff17e}, !- Zone Air Exhaust Port List
  {b62fd52c-52ba-4a59-a93c-54296f0eed14}, !- Zone Air Node Name
  ,                                       !- Zone Return Air Node Name
  ,                                       !- Primary Daylighting Control Name
  ,                                       !- Fraction of Zone Controlled by Primary Daylighting Control
  ,                                       !- Secondary Daylighting Control Name
  ,                                       !- Fraction of Zone Controlled by Secondary Daylighting Control
  ,                                       !- Illuminance Map Name
  {617dc9d9-50f1-4d21-9413-5cea656f9cc5}, !- Group Rendering Name
  ,                                       !- Thermostat Name
  No;                                     !- Use Ideal Air Loads

OS:Node,
  {d5d8fa61-e82e-42f3-8425-0f53113a3d9b}, !- Handle
  Node 1,                                 !- Name
  {b62fd52c-52ba-4a59-a93c-54296f0eed14}, !- Inlet Port
  ;                                       !- Outlet Port

OS:Connection,
  {b62fd52c-52ba-4a59-a93c-54296f0eed14}, !- Handle
  {bdbab382-bd5d-4cb7-b01c-4304124e4f4e}, !- Name
  {0780f4b3-626f-4114-af11-efc889e1f6dd}, !- Source Object
  11,                                     !- Outlet Port
  {d5d8fa61-e82e-42f3-8425-0f53113a3d9b}, !- Target Object
  2;                                      !- Inlet Port

OS:PortList,
  {8caea261-2949-4874-a751-6622b0456514}, !- Handle
  Port List 1,                            !- Name
  {0780f4b3-626f-4114-af11-efc889e1f6dd}; !- HVAC Component

OS:PortList,
  {605e6f01-739f-4e18-b49c-6e2cd2dff17e}, !- Handle
  Port List 2,                            !- Name
  {0780f4b3-626f-4114-af11-efc889e1f6dd}; !- HVAC Component

OS:Sizing:Zone,
  {a20d0ead-30b8-47e1-9b28-d4fd815a3116}, !- Handle
  {0780f4b3-626f-4114-af11-efc889e1f6dd}, !- Zone or ZoneList Name
  SupplyAirTemperature,                   !- Zone Cooling Design Supply Air Temperature Input Method
  14,                                     !- Zone Cooling Design Supply Air Temperature {C}
  11.11,                                  !- Zone Cooling Design Supply Air Temperature Difference {deltaC}
  SupplyAirTemperature,                   !- Zone Heating Design Supply Air Temperature Input Method
  40,                                     !- Zone Heating Design Supply Air Temperature {C}
  11.11,                                  !- Zone Heating Design Supply Air Temperature Difference {deltaC}
  0.0085,                                 !- Zone Cooling Design Supply Air Humidity Ratio {kg-H2O/kg-air}
  0.008,                                  !- Zone Heating Design Supply Air Humidity Ratio {kg-H2O/kg-air}
  ,                                       !- Zone Heating Sizing Factor
  ,                                       !- Zone Cooling Sizing Factor
  DesignDay,                              !- Cooling Design Air Flow Method
  ,                                       !- Cooling Design Air Flow Rate {m3/s}
  ,                                       !- Cooling Minimum Air Flow per Zone Floor Area {m3/s-m2}
  ,                                       !- Cooling Minimum Air Flow {m3/s}
  ,                                       !- Cooling Minimum Air Flow Fraction
  DesignDay,                              !- Heating Design Air Flow Method
  ,                                       !- Heating Design Air Flow Rate {m3/s}
  ,                                       !- Heating Maximum Air Flow per Zone Floor Area {m3/s-m2}
  ,                                       !- Heating Maximum Air Flow {m3/s}
  ,                                       !- Heating Maximum Air Flow Fraction
  ,                                       !- Design Zone Air Distribution Effectiveness in Cooling Mode
  ,                                       !- Design Zone Air Distribution Effectiveness in Heating Mode
  No,                                     !- Account for Dedicated Outdoor Air System
  NeutralSupplyAir,                       !- Dedicated Outdoor Air System Control Strategy
  autosize,                               !- Dedicated Outdoor Air Low Setpoint Temperature for Design {C}
  autosize;                               !- Dedicated Outdoor Air High Setpoint Temperature for Design {C}

OS:ZoneHVAC:EquipmentList,
  {97445a50-0458-43ba-894f-8fa375655951}, !- Handle
  Zone HVAC Equipment List 1,             !- Name
  {0780f4b3-626f-4114-af11-efc889e1f6dd}; !- Thermal Zone

OS:ThermalZone,
  {060299f1-4b20-4f80-a963-2eaad74ab27d}, !- Handle
  garage zone,                            !- Name
  ,                                       !- Multiplier
  ,                                       !- Ceiling Height {m}
  ,                                       !- Volume {m3}
  ,                                       !- Floor Area {m2}
  ,                                       !- Zone Inside Convection Algorithm
  ,                                       !- Zone Outside Convection Algorithm
  ,                                       !- Zone Conditioning Equipment List Name
  {950b7f9c-0525-4531-9212-44f7623fdaaa}, !- Zone Air Inlet Port List
  {55f4581d-0f3f-4e26-b29f-dbbfd8f6f9c4}, !- Zone Air Exhaust Port List
  {f7d77399-7473-4d2a-8068-66a347fc25a8}, !- Zone Air Node Name
  ,                                       !- Zone Return Air Node Name
  ,                                       !- Primary Daylighting Control Name
  ,                                       !- Fraction of Zone Controlled by Primary Daylighting Control
  ,                                       !- Secondary Daylighting Control Name
  ,                                       !- Fraction of Zone Controlled by Secondary Daylighting Control
  ,                                       !- Illuminance Map Name
  {86e72aec-a4ee-45f7-afbe-982b875555a9}, !- Group Rendering Name
  ,                                       !- Thermostat Name
  No;                                     !- Use Ideal Air Loads

OS:Node,
  {a51b408b-5516-4ef7-b400-3760f009544f}, !- Handle
  Node 2,                                 !- Name
  {f7d77399-7473-4d2a-8068-66a347fc25a8}, !- Inlet Port
  ;                                       !- Outlet Port

OS:Connection,
  {f7d77399-7473-4d2a-8068-66a347fc25a8}, !- Handle
  {6da057fd-e81a-47d4-8b98-bce921be2831}, !- Name
  {060299f1-4b20-4f80-a963-2eaad74ab27d}, !- Source Object
  11,                                     !- Outlet Port
  {a51b408b-5516-4ef7-b400-3760f009544f}, !- Target Object
  2;                                      !- Inlet Port

OS:PortList,
  {950b7f9c-0525-4531-9212-44f7623fdaaa}, !- Handle
  Port List 3,                            !- Name
  {060299f1-4b20-4f80-a963-2eaad74ab27d}; !- HVAC Component

OS:PortList,
  {55f4581d-0f3f-4e26-b29f-dbbfd8f6f9c4}, !- Handle
  Port List 4,                            !- Name
  {060299f1-4b20-4f80-a963-2eaad74ab27d}; !- HVAC Component

OS:Sizing:Zone,
  {476e1539-5b59-4978-bee2-5072e6f39db1}, !- Handle
  {060299f1-4b20-4f80-a963-2eaad74ab27d}, !- Zone or ZoneList Name
  SupplyAirTemperature,                   !- Zone Cooling Design Supply Air Temperature Input Method
  14,                                     !- Zone Cooling Design Supply Air Temperature {C}
  11.11,                                  !- Zone Cooling Design Supply Air Temperature Difference {deltaC}
  SupplyAirTemperature,                   !- Zone Heating Design Supply Air Temperature Input Method
  40,                                     !- Zone Heating Design Supply Air Temperature {C}
  11.11,                                  !- Zone Heating Design Supply Air Temperature Difference {deltaC}
  0.0085,                                 !- Zone Cooling Design Supply Air Humidity Ratio {kg-H2O/kg-air}
  0.008,                                  !- Zone Heating Design Supply Air Humidity Ratio {kg-H2O/kg-air}
  ,                                       !- Zone Heating Sizing Factor
  ,                                       !- Zone Cooling Sizing Factor
  DesignDay,                              !- Cooling Design Air Flow Method
  ,                                       !- Cooling Design Air Flow Rate {m3/s}
  ,                                       !- Cooling Minimum Air Flow per Zone Floor Area {m3/s-m2}
  ,                                       !- Cooling Minimum Air Flow {m3/s}
  ,                                       !- Cooling Minimum Air Flow Fraction
  DesignDay,                              !- Heating Design Air Flow Method
  ,                                       !- Heating Design Air Flow Rate {m3/s}
  ,                                       !- Heating Maximum Air Flow per Zone Floor Area {m3/s-m2}
  ,                                       !- Heating Maximum Air Flow {m3/s}
  ,                                       !- Heating Maximum Air Flow Fraction
  ,                                       !- Design Zone Air Distribution Effectiveness in Cooling Mode
  ,                                       !- Design Zone Air Distribution Effectiveness in Heating Mode
  No,                                     !- Account for Dedicated Outdoor Air System
  NeutralSupplyAir,                       !- Dedicated Outdoor Air System Control Strategy
  autosize,                               !- Dedicated Outdoor Air Low Setpoint Temperature for Design {C}
  autosize;                               !- Dedicated Outdoor Air High Setpoint Temperature for Design {C}

OS:ZoneHVAC:EquipmentList,
  {8a8d557d-9dd6-4b57-a58a-29c95350b09f}, !- Handle
  Zone HVAC Equipment List 2,             !- Name
  {060299f1-4b20-4f80-a963-2eaad74ab27d}; !- Thermal Zone

OS:Space,
  {d11e34e7-a4f6-4aba-a9d1-603728be00b9}, !- Handle
  garage space,                           !- Name
  ,                                       !- Space Type Name
  ,                                       !- Default Construction Set Name
  ,                                       !- Default Schedule Set Name
  -0,                                     !- Direction of Relative North {deg}
  0,                                      !- X Origin {m}
  0,                                      !- Y Origin {m}
  0,                                      !- Z Origin {m}
  ,                                       !- Building Story Name
  {060299f1-4b20-4f80-a963-2eaad74ab27d}, !- Thermal Zone Name
  ,                                       !- Part of Total Floor Area
  ,                                       !- Design Specification Outdoor Air Object Name
  {f696eaf4-ff39-4865-a1c8-2bbd08dd199b}; !- Building Unit Name

OS:Surface,
  {baf160ab-2b43-45ea-9c3a-aeb014f2756a}, !- Handle
  Surface 1,                              !- Name
  Floor,                                  !- Surface Type
  ,                                       !- Construction Name
  {d11e34e7-a4f6-4aba-a9d1-603728be00b9}, !- Space Name
  Ground,                                 !- Outside Boundary Condition
  ,                                       !- Outside Boundary Condition Object
  NoSun,                                  !- Sun Exposure
  NoWind,                                 !- Wind Exposure
  ,                                       !- View Factor to Ground
  ,                                       !- Number of Vertices
  7.53507039083872, -3.048, 0,            !- X,Y,Z Vertex 1 {m}
  7.53507039083872, 3.048, 0,             !- X,Y,Z Vertex 2 {m}
  13.6310703908387, 3.048, 0,             !- X,Y,Z Vertex 3 {m}
  13.6310703908387, -3.048, 0;            !- X,Y,Z Vertex 4 {m}

OS:Surface,
  {ba228b72-14b7-40d0-b5fe-4d7446d82e29}, !- Handle
  Surface 2,                              !- Name
  Wall,                                   !- Surface Type
  ,                                       !- Construction Name
  {d11e34e7-a4f6-4aba-a9d1-603728be00b9}, !- Space Name
  Surface,                                !- Outside Boundary Condition
  {4f2742a9-617d-47d0-a6dd-ecd3f467862c}, !- Outside Boundary Condition Object
  NoSun,                                  !- Sun Exposure
  NoWind,                                 !- Wind Exposure
  ,                                       !- View Factor to Ground
  ,                                       !- Number of Vertices
  7.53507039083872, 3.048, 2.4384,        !- X,Y,Z Vertex 1 {m}
  7.53507039083872, 3.048, 0,             !- X,Y,Z Vertex 2 {m}
  7.53507039083872, 0, 0,                 !- X,Y,Z Vertex 3 {m}
  7.53507039083872, 0, 2.4384;            !- X,Y,Z Vertex 4 {m}

OS:Surface,
  {0edf8c5e-cf10-457e-a922-04f061ce1ad1}, !- Handle
  Surface 3,                              !- Name
  Wall,                                   !- Surface Type
  ,                                       !- Construction Name
  {d11e34e7-a4f6-4aba-a9d1-603728be00b9}, !- Space Name
  Surface,                                !- Outside Boundary Condition
  {ca841b2d-55d9-4610-8b9f-0d9bf3f8ed43}, !- Outside Boundary Condition Object
  NoSun,                                  !- Sun Exposure
  NoWind,                                 !- Wind Exposure
  ,                                       !- View Factor to Ground
  ,                                       !- Number of Vertices
  13.6310703908387, 3.048, 2.4384,        !- X,Y,Z Vertex 1 {m}
  13.6310703908387, 3.048, 0,             !- X,Y,Z Vertex 2 {m}
  7.53507039083872, 3.048, 0,             !- X,Y,Z Vertex 3 {m}
  7.53507039083872, 3.048, 2.4384;        !- X,Y,Z Vertex 4 {m}

OS:Surface,
  {a7ced9f6-7835-438c-a79e-8de571052742}, !- Handle
  Surface 4,                              !- Name
  Wall,                                   !- Surface Type
  ,                                       !- Construction Name
  {d11e34e7-a4f6-4aba-a9d1-603728be00b9}, !- Space Name
  Outdoors,                               !- Outside Boundary Condition
  ,                                       !- Outside Boundary Condition Object
  SunExposed,                             !- Sun Exposure
  WindExposed,                            !- Wind Exposure
  ,                                       !- View Factor to Ground
  ,                                       !- Number of Vertices
  13.6310703908387, -3.048, 2.4384,       !- X,Y,Z Vertex 1 {m}
  13.6310703908387, -3.048, 0,            !- X,Y,Z Vertex 2 {m}
  13.6310703908387, 3.048, 0,             !- X,Y,Z Vertex 3 {m}
  13.6310703908387, 3.048, 2.4384;        !- X,Y,Z Vertex 4 {m}

OS:Surface,
  {f7f730ee-aabf-4d8e-8279-a3853dda4d9a}, !- Handle
  Surface 5,                              !- Name
  Wall,                                   !- Surface Type
  ,                                       !- Construction Name
  {d11e34e7-a4f6-4aba-a9d1-603728be00b9}, !- Space Name
  Outdoors,                               !- Outside Boundary Condition
  ,                                       !- Outside Boundary Condition Object
  SunExposed,                             !- Sun Exposure
  WindExposed,                            !- Wind Exposure
  ,                                       !- View Factor to Ground
  ,                                       !- Number of Vertices
  7.53507039083872, -3.048, 2.4384,       !- X,Y,Z Vertex 1 {m}
  7.53507039083872, -3.048, 0,            !- X,Y,Z Vertex 2 {m}
  13.6310703908387, -3.048, 0,            !- X,Y,Z Vertex 3 {m}
  13.6310703908387, -3.048, 2.4384;       !- X,Y,Z Vertex 4 {m}

OS:Surface,
  {79075613-b92e-4c76-b015-61dbc8cf31cb}, !- Handle
  Surface 6,                              !- Name
  RoofCeiling,                            !- Surface Type
  ,                                       !- Construction Name
  {d11e34e7-a4f6-4aba-a9d1-603728be00b9}, !- Space Name
  Surface,                                !- Outside Boundary Condition
  {7b9bd1ad-521b-4c43-98b5-3249c3094027}, !- Outside Boundary Condition Object
  NoSun,                                  !- Sun Exposure
  NoWind,                                 !- Wind Exposure
  ,                                       !- View Factor to Ground
  ,                                       !- Number of Vertices
  13.6310703908387, -3.048, 2.4384,       !- X,Y,Z Vertex 1 {m}
  13.6310703908387, 3.048, 2.4384,        !- X,Y,Z Vertex 2 {m}
  7.53507039083872, 3.048, 2.4384,        !- X,Y,Z Vertex 3 {m}
  7.53507039083872, -3.048, 2.4384;       !- X,Y,Z Vertex 4 {m}

OS:Space,
  {3c6b3e43-5804-449e-b998-49b9b3639fd8}, !- Handle
  living space,                           !- Name
  ,                                       !- Space Type Name
  ,                                       !- Default Construction Set Name
  ,                                       !- Default Schedule Set Name
  -0,                                     !- Direction of Relative North {deg}
  0,                                      !- X Origin {m}
  0,                                      !- Y Origin {m}
  0,                                      !- Z Origin {m}
  ,                                       !- Building Story Name
  {0780f4b3-626f-4114-af11-efc889e1f6dd}, !- Thermal Zone Name
  ,                                       !- Part of Total Floor Area
  ,                                       !- Design Specification Outdoor Air Object Name
  {f696eaf4-ff39-4865-a1c8-2bbd08dd199b}; !- Building Unit Name

OS:Surface,
  {c358abea-5c75-4e09-a771-9fd9e328f1c0}, !- Handle
  Surface 7,                              !- Name
  Floor,                                  !- Surface Type
  ,                                       !- Construction Name
  {3c6b3e43-5804-449e-b998-49b9b3639fd8}, !- Space Name
  Surface,                                !- Outside Boundary Condition
  {3483ca0e-40aa-4c59-9877-6288ec3687fa}, !- Outside Boundary Condition Object
  NoSun,                                  !- Sun Exposure
  NoWind,                                 !- Wind Exposure
  ,                                       !- View Factor to Ground
  ,                                       !- Number of Vertices
  0, 0, 0,                                !- X,Y,Z Vertex 1 {m}
  0, 6.81553519541936, 0,                 !- X,Y,Z Vertex 2 {m}
  13.6310703908387, 6.81553519541936, 0,  !- X,Y,Z Vertex 3 {m}
  13.6310703908387, 3.048, 0,             !- X,Y,Z Vertex 4 {m}
  7.53507039083872, 3.048, 0,             !- X,Y,Z Vertex 5 {m}
  7.53507039083872, 0, 0;                 !- X,Y,Z Vertex 6 {m}

OS:Surface,
  {f45e8a34-a05e-4a8f-9c04-19ab99a47474}, !- Handle
  Surface 8,                              !- Name
  Wall,                                   !- Surface Type
  ,                                       !- Construction Name
  {3c6b3e43-5804-449e-b998-49b9b3639fd8}, !- Space Name
  Outdoors,                               !- Outside Boundary Condition
  ,                                       !- Outside Boundary Condition Object
  SunExposed,                             !- Sun Exposure
  WindExposed,                            !- Wind Exposure
  ,                                       !- View Factor to Ground
  ,                                       !- Number of Vertices
  0, 6.81553519541936, 2.4384,            !- X,Y,Z Vertex 1 {m}
  0, 6.81553519541936, 0,                 !- X,Y,Z Vertex 2 {m}
  0, 0, 0,                                !- X,Y,Z Vertex 3 {m}
  0, 0, 2.4384;                           !- X,Y,Z Vertex 4 {m}

OS:Surface,
  {e2ffe363-b1eb-4c5f-be9a-cf154aaf4b3d}, !- Handle
  Surface 9,                              !- Name
  Wall,                                   !- Surface Type
  ,                                       !- Construction Name
  {3c6b3e43-5804-449e-b998-49b9b3639fd8}, !- Space Name
  Outdoors,                               !- Outside Boundary Condition
  ,                                       !- Outside Boundary Condition Object
  SunExposed,                             !- Sun Exposure
  WindExposed,                            !- Wind Exposure
  ,                                       !- View Factor to Ground
  ,                                       !- Number of Vertices
  13.6310703908387, 6.81553519541936, 2.4384, !- X,Y,Z Vertex 1 {m}
  13.6310703908387, 6.81553519541936, 0,  !- X,Y,Z Vertex 2 {m}
  0, 6.81553519541936, 0,                 !- X,Y,Z Vertex 3 {m}
  0, 6.81553519541936, 2.4384;            !- X,Y,Z Vertex 4 {m}

OS:Surface,
  {ca9a77dd-7d80-495d-b8a9-6a3cc2f71209}, !- Handle
  Surface 10,                             !- Name
  Wall,                                   !- Surface Type
  ,                                       !- Construction Name
  {3c6b3e43-5804-449e-b998-49b9b3639fd8}, !- Space Name
  Outdoors,                               !- Outside Boundary Condition
  ,                                       !- Outside Boundary Condition Object
  SunExposed,                             !- Sun Exposure
  WindExposed,                            !- Wind Exposure
  ,                                       !- View Factor to Ground
  ,                                       !- Number of Vertices
  13.6310703908387, 3.048, 2.4384,        !- X,Y,Z Vertex 1 {m}
  13.6310703908387, 3.048, 0,             !- X,Y,Z Vertex 2 {m}
  13.6310703908387, 6.81553519541936, 0,  !- X,Y,Z Vertex 3 {m}
  13.6310703908387, 6.81553519541936, 2.4384; !- X,Y,Z Vertex 4 {m}

OS:Surface,
  {ca841b2d-55d9-4610-8b9f-0d9bf3f8ed43}, !- Handle
  Surface 11,                             !- Name
  Wall,                                   !- Surface Type
  ,                                       !- Construction Name
  {3c6b3e43-5804-449e-b998-49b9b3639fd8}, !- Space Name
  Surface,                                !- Outside Boundary Condition
  {0edf8c5e-cf10-457e-a922-04f061ce1ad1}, !- Outside Boundary Condition Object
  NoSun,                                  !- Sun Exposure
  NoWind,                                 !- Wind Exposure
  ,                                       !- View Factor to Ground
  ,                                       !- Number of Vertices
  7.53507039083872, 3.048, 2.4384,        !- X,Y,Z Vertex 1 {m}
  7.53507039083872, 3.048, 0,             !- X,Y,Z Vertex 2 {m}
  13.6310703908387, 3.048, 0,             !- X,Y,Z Vertex 3 {m}
  13.6310703908387, 3.048, 2.4384;        !- X,Y,Z Vertex 4 {m}

OS:Surface,
  {4f2742a9-617d-47d0-a6dd-ecd3f467862c}, !- Handle
  Surface 12,                             !- Name
  Wall,                                   !- Surface Type
  ,                                       !- Construction Name
  {3c6b3e43-5804-449e-b998-49b9b3639fd8}, !- Space Name
  Surface,                                !- Outside Boundary Condition
  {ba228b72-14b7-40d0-b5fe-4d7446d82e29}, !- Outside Boundary Condition Object
  NoSun,                                  !- Sun Exposure
  NoWind,                                 !- Wind Exposure
  ,                                       !- View Factor to Ground
  ,                                       !- Number of Vertices
  7.53507039083872, 0, 2.4384,            !- X,Y,Z Vertex 1 {m}
  7.53507039083872, 0, 0,                 !- X,Y,Z Vertex 2 {m}
  7.53507039083872, 3.048, 0,             !- X,Y,Z Vertex 3 {m}
  7.53507039083872, 3.048, 2.4384;        !- X,Y,Z Vertex 4 {m}

OS:Surface,
  {bcc8f07c-e58f-4dff-b68d-c1516b1117e0}, !- Handle
  Surface 13,                             !- Name
  Wall,                                   !- Surface Type
  ,                                       !- Construction Name
  {3c6b3e43-5804-449e-b998-49b9b3639fd8}, !- Space Name
  Outdoors,                               !- Outside Boundary Condition
  ,                                       !- Outside Boundary Condition Object
  SunExposed,                             !- Sun Exposure
  WindExposed,                            !- Wind Exposure
  ,                                       !- View Factor to Ground
  ,                                       !- Number of Vertices
  0, 0, 2.4384,                           !- X,Y,Z Vertex 1 {m}
  0, 0, 0,                                !- X,Y,Z Vertex 2 {m}
  7.53507039083872, 0, 0,                 !- X,Y,Z Vertex 3 {m}
  7.53507039083872, 0, 2.4384;            !- X,Y,Z Vertex 4 {m}

OS:Surface,
  {97ed9bc6-1125-49c9-8777-a7d6dbfcce6c}, !- Handle
  Surface 14,                             !- Name
  RoofCeiling,                            !- Surface Type
  ,                                       !- Construction Name
  {3c6b3e43-5804-449e-b998-49b9b3639fd8}, !- Space Name
  Surface,                                !- Outside Boundary Condition
  {f9276453-3d4f-4e13-9a84-be25111d0985}, !- Outside Boundary Condition Object
  NoSun,                                  !- Sun Exposure
  NoWind,                                 !- Wind Exposure
  ,                                       !- View Factor to Ground
  ,                                       !- Number of Vertices
  7.53507039083872, 0, 2.4384,            !- X,Y,Z Vertex 1 {m}
  7.53507039083872, 3.048, 2.4384,        !- X,Y,Z Vertex 2 {m}
  13.6310703908387, 3.048, 2.4384,        !- X,Y,Z Vertex 3 {m}
  13.6310703908387, 6.81553519541936, 2.4384, !- X,Y,Z Vertex 4 {m}
  0, 6.81553519541936, 2.4384,            !- X,Y,Z Vertex 5 {m}
  0, 0, 2.4384;                           !- X,Y,Z Vertex 6 {m}

OS:Space,
  {87016f28-8024-4819-aa96-99e5b64006c4}, !- Handle
  living space|story 2,                   !- Name
  ,                                       !- Space Type Name
  ,                                       !- Default Construction Set Name
  ,                                       !- Default Schedule Set Name
  -0,                                     !- Direction of Relative North {deg}
  0,                                      !- X Origin {m}
  0,                                      !- Y Origin {m}
  2.4384,                                 !- Z Origin {m}
  ,                                       !- Building Story Name