
OS:Version,
  {d8a8d0c0-2ee4-4481-8de2-750abf7b90de}, !- Handle
  1.3.1;                                  !- Version Identifier

OS:Construction,
  {f7ff7ba7-8e38-49a5-be2f-7646c11d9481}, !- Handle
  ExtInsFinWall,                          !- Name
  ,                                       !- Surface Rendering Name
  {b5fe00ab-1351-4684-8469-274ed669d38f}, !- Layer 1
  {2caf0177-5011-4052-babc-2e238675058b}, !- Layer 2
  {5bc42890-512c-4d99-870f-4e45ad2d1a77}, !- Layer 3
  {20486398-616b-416a-8e8e-810885852c26}; !- Layer 4

OS:Material,
  {b5fe00ab-1351-4684-8469-274ed669d38f}, !- Handle
  Exterior_Finish_Vinyl_Light,            !- Name
  Rough,                                  !- Roughness
  0.009525,                               !- Thickness {m}
  0.089435,                               !- Conductivity {W/m-K}
  177.822,                                !- Density {kg/m3}
  1046.75,                                !- Specific Heat {J/kg-K}
  0.9,                                    !- Thermal Absorptance
  0.3,                                    !- Solar Absorptance
  0.3;                                    !- Visible Absorptance

OS:Material,
  {20486398-616b-416a-8e8e-810885852c26}, !- Handle
  GypsumBoard_1_2in,                      !- Name
  Rough,                                  !- Roughness
  0.0127,                                 !- Thickness {m}
  0.1602906,                              !- Conductivity {W/m-K}
  801,                                    !- Density {kg/m3}
  837.4;                                  !- Specific Heat {J/kg-K}

OS:Material,
  {2caf0177-5011-4052-babc-2e238675058b}, !- Handle
  CMU,                                    !- Name
  Rough,                                  !- Roughness
  0.1524,                                 !- Thickness {m}
  0.143523570076768,                      !- Conductivity {W/m-K}
  1030.7268,                              !- Density {kg/m3}
  851.643869443581;                       !- Specific Heat {J/kg-K}

OS:Material,
  {5bc42890-512c-4d99-870f-4e45ad2d1a77}, !- Handle
  Furring,                                !- Name
  Rough,                                  !- Roughness
  0.0508,                                 !- Thickness {m}
  0.04084516645,                          !- Conductivity {W/m-K}
  110.3341455,                            !- Density {kg/m3}
  1154.52431712832;                       !- Specific Heat {J/kg-K}

