
OS:Version,
  {30ef4679-1877-4552-af81-2b773b4ecb0a}, !- Handle
  1.3.1;                                  !- Version Identifier

OS:Construction,
  {ec3fe54d-70b4-4f18-9df4-0e616faa6044}, !- Handle
  ExtInsFinWall,                          !- Name
  ,                                       !- Surface Rendering Name
  {dc638e44-e597-418b-830c-0cb03d512a93}, !- Layer 1
  {97d22752-23ac-4529-93bd-5b2038eb0498}, !- Layer 2
  {9c9d1c23-e9c9-4272-882d-940056d44e9f}, !- Layer 3
  {9f6d6595-988e-4025-bde8-31ddf7f72657}, !- Layer 4
  {f8eeb8e3-2c57-4384-9a98-64ece2fad040}, !- Layer 5
  {76956cbd-c6c6-47c2-b31a-db78ac624004}; !- Layer 6

OS:Material,
  {dc638e44-e597-418b-830c-0cb03d512a93}, !- Handle
  Exterior_Finish_Vinyl_Light,            !- Name
  Rough,                                  !- Roughness
  0.009525,                               !- Thickness {m}
  0.089435,                               !- Conductivity {W/m-K}
  177.822,                                !- Density {kg/m3}
  1046.75,                                !- Specific Heat {J/kg-K}
  0.9,                                    !- Thermal Absorptance
  0.3,                                    !- Solar Absorptance
  0.3;                                    !- Visible Absorptance

OS:Material,
  {76956cbd-c6c6-47c2-b31a-db78ac624004}, !- Handle
  GypsumBoard_1_2in,                      !- Name
  Rough,                                  !- Roughness
  0.0127,                                 !- Thickness {m}
  0.1602906,                              !- Conductivity {W/m-K}
  801,                                    !- Density {kg/m3}
  837.4;                                  !- Specific Heat {J/kg-K}

OS:Material,
  {97d22752-23ac-4529-93bd-5b2038eb0498}, !- Handle
  SplineLayer,                            !- Name
  Rough,                                  !- Roughness
  0.0127,                                 !- Thickness {m}
  0.0328445370252669,                     !- Conductivity {W/m-K}
  147.0636,                               !- Density {kg/m3}
  1214.23;                                !- Specific Heat {J/kg-K}

OS:Material,
  {9c9d1c23-e9c9-4272-882d-940056d44e9f}, !- Handle
  WallIns,                                !- Name
  Rough,                                  !- Roughness
  0.117475,                               !- Thickness {m}
  0.0429141966545455,                     !- Conductivity {W/m-K}
  107.0136,                               !- Density {kg/m3}
  1214.23;                                !- Specific Heat {J/kg-K}

OS:Material,
  {9f6d6595-988e-4025-bde8-31ddf7f72657}, !- Handle
  SplineLayer 1,                          !- Name
  Rough,                                  !- Roughness
  0.0127,                                 !- Thickness {m}
  0.0328445370252669,                     !- Conductivity {W/m-K}
  147.0636,                               !- Density {kg/m3}
  1214.23;                                !- Specific Heat {J/kg-K}

OS:Material,
  {f8eeb8e3-2c57-4384-9a98-64ece2fad040}, !- Handle
  IntSheathing,                           !- Name
  Rough,                                  !- Roughness
  0.0127,                                 !- Thickness {m}
  0.1602906,                              !- Conductivity {W/m-K}
  801,                                    !- Density {kg/m3}
  837.4;                                  !- Specific Heat {J/kg-K}

