
OS:Version,
  {e91b7960-edc1-4915-8a81-2bb6893a9281}, !- Handle
  1.3.1;                                  !- Version Identifier

OS:Construction,
  {ecf10a5d-e00a-4136-8ee1-5c2c8111e973}, !- Handle
  GrndInsUnfinCSWall,                     !- Name
  ,                                       !- Surface Rendering Name
  {99dd6fe3-8898-4ae4-89bc-dcb2a8534621}, !- Layer 1
  {a6636937-3fc3-4a3e-9715-1efa1ee1b4fa}, !- Layer 2
  {b5976fa0-6a7d-4287-a444-a37471a6d8d9}; !- Layer 3

OS:Material,
  {99dd6fe3-8898-4ae4-89bc-dcb2a8534621}, !- Handle
  Soil_12in,                              !- Name
  Rough,                                  !- Roughness
  0.3048,                                 !- Thickness {m}
  1.731,                                  !- Conductivity {W/m-K}
  1842.3,                                 !- Density {kg/m3}
  418.7;                                  !- Specific Heat {J/kg-K}

OS:Material,
  {a6636937-3fc3-4a3e-9715-1efa1ee1b4fa}, !- Handle
  Concrete_8in,                           !- Name
  Rough,                                  !- Roughness
  0.2032,                                 !- Thickness {m}
  1.3114056,                              !- Conductivity {W/m-K}
  2242.79999999999,                       !- Density {kg/m3}
  837.4;                                  !- Specific Heat {J/kg-K}

OS:Material,
  {b5976fa0-6a7d-4287-a444-a37471a6d8d9}, !- Handle
  CWallIns,                               !- Name
  Rough,                                  !- Roughness
  0.0762,                                 !- Thickness {m}
  0.02885,                                !- Conductivity {W/m-K}
  32.04,                                  !- Density {kg/m3}
  1214.23;                                !- Specific Heat {J/kg-K}

