
OS:Version,
  {a9520dbb-8e71-4ba4-ae85-ac9493f441f1}, !- Handle
  1.3.1;                                  !- Version Identifier

OS:WindowMaterial:SimpleGlazingSystem,
  {f2bad524-b77b-45d7-a898-dec72c3b83f1}, !- Handle
  Double-Pane Glass,                      !- Name
  1.64635581805274,                       !- U-Factor {W/m2-K}
  0.56160782207905;                       !- Solar Heat Gain Coefficient

OS:Construction,
  {076857b2-baf2-4016-b245-d6ddafe08ae2}, !- Handle
  Double-Pane High-Gain Low-E Insulated Frame Argon Fill, !- Name
  ,                                       !- Surface Rendering Name
  {f2bad524-b77b-45d7-a898-dec72c3b83f1}; !- Layer 1

OS:StandardsInformation:Construction,
  {c440ae85-ed26-4c6c-bad7-e00eaf9b8fc4}, !- Handle
  {076857b2-baf2-4016-b245-d6ddafe08ae2}, !- Construction Name
  ExteriorWindow;                         !- Intended Surface Type

