
OS:Version,
  {bf07445d-04da-4039-822f-0d49fb58d6fb}, !- Handle
  1.3.1;                                  !- Version Identifier

OS:Construction,
  {210503f5-b817-4800-9273-c955c88523c2}, !- Handle
  ExtInsFinWall,                          !- Name
  ,                                       !- Surface Rendering Name
  {0eb7c50b-c7a1-46cc-bc03-19af0cca65f0}, !- Layer 1
  {49722cd3-b28a-41b6-8798-84fa30624c8a}, !- Layer 2
  {95ff5ab0-ef32-4b50-974e-93028aa4cfe7}, !- Layer 3
  {a5183289-f898-4bf3-a9b6-0c58e3861dd7}; !- Layer 4

OS:Material,
  {0eb7c50b-c7a1-46cc-bc03-19af0cca65f0}, !- Handle
  Exterior_Finish_Vinyl_Light,            !- Name
  Rough,                                  !- Roughness
  0.009525,                               !- Thickness {m}
  0.089435,                               !- Conductivity {W/m-K}
  177.822,                                !- Density {kg/m3}
  1046.75,                                !- Specific Heat {J/kg-K}
  0.9,                                    !- Thermal Absorptance
  0.3,                                    !- Solar Absorptance
  0.3;                                    !- Visible Absorptance

OS:Material,
  {49722cd3-b28a-41b6-8798-84fa30624c8a}, !- Handle
  Plywood_1_2in,                          !- Name
  Rough,                                  !- Roughness
  0.0127,                                 !- Thickness {m}
  0.1154577,                              !- Conductivity {W/m-K}
  512.64,                                 !- Density {kg/m3}
  1214.23;                                !- Specific Heat {J/kg-K}

OS:Material,
  {a5183289-f898-4bf3-a9b6-0c58e3861dd7}, !- Handle
  GypsumBoard_1_2in,                      !- Name
  Rough,                                  !- Roughness
  0.0127,                                 !- Thickness {m}
  0.1602906,                              !- Conductivity {W/m-K}
  801,                                    !- Density {kg/m3}
  837.4;                                  !- Specific Heat {J/kg-K}

OS:Material,
  {95ff5ab0-ef32-4b50-974e-93028aa4cfe7}, !- Handle
  StudandCavity,                          !- Name
  Rough,                                  !- Roughness
  0.0889,                                 !- Thickness {m}
  0.0566600157170419,                     !- Conductivity {W/m-K}
  160.735273569433,                       !- Density {kg/m3}
  1180.27617856933;                       !- Specific Heat {J/kg-K}

