
OS:Version,
  {6f82536b-7502-4da4-9650-9ef6a02fc6d9}, !- Handle
  2.2.1;                                  !- Version Identifier

OS:Building,
  {bf305633-c5a1-4881-9edf-ca5e1a8e1274}, !- Handle
  FIXME,                                  !- Name
  ,                                       !- Building Sector Type
  ,                                       !- North Axis {deg}
  ,                                       !- Nominal Floor to Floor Height {m}
  ,                                       !- Space Type Name
  ,                                       !- Default Construction Set Name
  ,                                       !- Default Schedule Set Name
  2,                                      !- Standards Number of Stories
  1,                                      !- Standards Number of Above Ground Stories
  singlefamilydetached,                   !- Standards Building Type
  1;                                      !- Standards Number of Living Units

OS:YearDescription,
  {513d8dda-86cb-442a-b01c-1f7f0e0ac70e}; !- Handle

OS:SimulationControl,
  {2c487a4c-bac9-4ac5-b669-1e49d9da7c2b}, !- Handle
  ,                                       !- Do Zone Sizing Calculation
  ,                                       !- Do System Sizing Calculation
  ,                                       !- Do Plant Sizing Calculation
  No,                                     !- Run Simulation for Sizing Periods
  ;                                       !- Run Simulation for Weather File Run Periods

OS:Timestep,
  {4ebc9f1e-4707-402e-9844-67eb1ffbd522}, !- Handle
  1;                                      !- Number of Timesteps per Hour

OS:RunPeriod,
  {28df894d-6af9-4fb8-8f56-df1753344aa3}, !- Handle
  Run Period,                             !- Name
  1,                                      !- Begin Month
  1,                                      !- Begin Day of Month
  12,                                     !- End Month
  31,                                     !- End Day of Month
  ,                                       !- Use Weather File Holidays and Special Days
  ,                                       !- Use Weather File Daylight Saving Period
  ,                                       !- Apply Weekend Holiday Rule
  ,                                       !- Use Weather File Rain Indicators
  ,                                       !- Use Weather File Snow Indicators
  ;                                       !- Number of Times Runperiod to be Repeated

OS:Sizing:Parameters,
  {dde5af6f-7923-4600-a28a-7556673a0266}, !- Handle
  1.0,                                    !- Heating Sizing Factor
  1.0;                                    !- Cooling Sizing Factor

OS:ShadowCalculation,
  {ca758bea-4416-4626-9bba-3d8795c79bd6}, !- Handle
  20,                                     !- Calculation Frequency
  200;                                    !- Maximum Figures in Shadow Overlap Calculations

OS:SurfaceConvectionAlgorithm:Inside,
  {aaabfc36-718a-4ab0-b622-f186ebb45230}, !- Handle
  TARP;                                   !- Algorithm

OS:SurfaceConvectionAlgorithm:Outside,
  {9a0a9f6f-4bbd-4b12-a121-9492a1fcd7d6}, !- Handle
  DOE-2;                                  !- Algorithm

OS:HeatBalanceAlgorithm,
  {9d93e563-e1e0-46d7-9e39-d1c8aceb7212}, !- Handle
  ConductionTransferFunction,             !- Algorithm
  200;                                    !- Surface Temperature Upper Limit {C}

OS:ZoneCapacitanceMultiplier:ResearchSpecial,
  {6bfced16-b16f-47f6-8223-f7e267d75d19}, !- Handle
  ,                                       !- Temperature Capacity Multiplier
  15,                                     !- Humidity Capacity Multiplier
  ;                                       !- Carbon Dioxide Capacity Multiplier

OS:Site,
  {003fbb93-e3df-49af-bb3f-1c66213660e2}, !- Handle
  Denver Intl Ap_CO_USA,                  !- Name
  39.83,                                  !- Latitude {deg}
  -104.65,                                !- Longitude {deg}
  -7,                                     !- Time Zone {hr}
  1650,                                   !- Elevation {m}
  Suburbs;                                !- Terrain

OS:WeatherFile,
  {69524213-f0f2-4072-befc-8577b369113c}, !- Handle
  Denver Intl Ap,                         !- City
  CO,                                     !- State Province Region
  USA,                                    !- Country
  TMY3,                                   !- Data Source
  725650,                                 !- WMO Number
  39.83,                                  !- Latitude {deg}
  -104.65,                                !- Longitude {deg}
  -7,                                     !- Time Zone {hr}
  1650,                                   !- Elevation {m}
  file:///C:/Users/shorowit/Documents/GitHub/OpenStudio-ERI/workflow/sample_files/denver.epw, !- Url
  E23378AA;                               !- Checksum

OS:ClimateZones,
  {916277bb-6223-4307-a117-b5f32da6145a}, !- Handle
  ,                                       !- Active Institution
  ,                                       !- Active Year
  ,                                       !- Climate Zone Institution Name 1
  ,                                       !- Climate Zone Document Name 1
  ,                                       !- Climate Zone Document Year 1
  ,                                       !- Climate Zone Value 1
  Building America,                       !- Climate Zone Institution Name 2
  ,                                       !- Climate Zone Document Name 2
  0,                                      !- Climate Zone Document Year 2
  Cold;                                   !- Climate Zone Value 2

OS:Site:WaterMainsTemperature,
  {dffe44a4-981b-4ce4-85d0-fb0346988109}, !- Handle
  Correlation,                            !- Calculation Method
  ,                                       !- Temperature Schedule Name
  10.8753424657535,                       !- Annual Average Outdoor Air Temperature {C}
  23.1524007936508;                       !- Maximum Difference In Monthly Average Outdoor Air Temperatures {deltaC}

OS:Site:GroundTemperature:BuildingSurface,
  {e12a5464-acc0-413a-b12c-a4bc05deb6d9}, !- Handle
  6.71220717182217,                       !- January Ground Temperature {C}
  4.94160315792055,                       !- February Ground Temperature {C}
  4.79814094732353,                       !- March Ground Temperature {C}
  5.63626323951138,                       !- April Ground Temperature {C}
  9.00496422788996,                       !- May Ground Temperature {C}
  12.3607918495591,                       !- June Ground Temperature {C}
  15.2732325604715,                       !- July Ground Temperature {C}
  17.1228426206644,                       !- August Ground Temperature {C}
  17.2883239591317,                       !- September Ground Temperature {C}
  15.7978912711895,                       !- October Ground Temperature {C}
  12.9685430093462,                       !- November Ground Temperature {C}
  9.71587840323366;                       !- December Ground Temperature {C}

OS:Site:GroundTemperature:Deep,
  {bfe19b7d-db13-4737-a5fe-27e4166fa21b}, !- Handle
  10.8753424657535,                       !- January Deep Ground Temperature {C}
  10.8753424657535,                       !- February Deep Ground Temperature {C}
  10.8753424657535,                       !- March Deep Ground Temperature {C}
  10.8753424657535,                       !- April Deep Ground Temperature {C}
  10.8753424657535,                       !- May Deep Ground Temperature {C}
  10.8753424657535,                       !- June Deep Ground Temperature {C}
  10.8753424657535,                       !- July Deep Ground Temperature {C}
  10.8753424657535,                       !- August Deep Ground Temperature {C}
  10.8753424657535,                       !- September Deep Ground Temperature {C}
  10.8753424657535,                       !- October Deep Ground Temperature {C}
  10.8753424657535,                       !- November Deep Ground Temperature {C}
  10.8753424657535;                       !- December Deep Ground Temperature {C}

OS:ThermalZone,
  {3c4933f9-f74e-4d1d-b882-7e88db67e417}, !- Handle
  unfinished attic zone,                  !- Name
  ,                                       !- Multiplier
  ,                                       !- Ceiling Height {m}
  2.8316846592e-005,                      !- Volume {m3}
  ,                                       !- Floor Area {m2}
  ,                                       !- Zone Inside Convection Algorithm
  ,                                       !- Zone Outside Convection Algorithm
  ,                                       !- Zone Conditioning Equipment List Name
  {e672b672-41ae-494b-b1f1-eaabc7bdd0d4}, !- Zone Air Inlet Port List
  {db4e65f6-d068-4fc0-806e-63677bf653de}, !- Zone Air Exhaust Port List
  {6624ff29-a46a-4afa-ba1a-24afb4726ed2}, !- Zone Air Node Name
  ,                                       !- Zone Return Air Node Name
  ,                                       !- Primary Daylighting Control Name
  ,                                       !- Fraction of Zone Controlled by Primary Daylighting Control
  ,                                       !- Secondary Daylighting Control Name
  ,                                       !- Fraction of Zone Controlled by Secondary Daylighting Control
  ,                                       !- Illuminance Map Name
  ,                                       !- Group Rendering Name
  ,                                       !- Thermostat Name
  No;                                     !- Use Ideal Air Loads

OS:Node,
  {37c6f812-d2fd-4ff3-9233-48a6f5915eac}, !- Handle
  Node 1,                                 !- Name
  {6624ff29-a46a-4afa-ba1a-24afb4726ed2}, !- Inlet Port
  ;                                       !- Outlet Port

OS:Connection,
  {6624ff29-a46a-4afa-ba1a-24afb4726ed2}, !- Handle
  {36b993f4-5bec-4515-a619-aff2637e04bf}, !- Name
  {3c4933f9-f74e-4d1d-b882-7e88db67e417}, !- Source Object
  11,                                     !- Outlet Port
  {37c6f812-d2fd-4ff3-9233-48a6f5915eac}, !- Target Object
  2;                                      !- Inlet Port

OS:PortList,
  {e672b672-41ae-494b-b1f1-eaabc7bdd0d4}, !- Handle
  {c00d30f4-15be-4aaa-a3ae-401e234c48c0}, !- Name
  {3c4933f9-f74e-4d1d-b882-7e88db67e417}; !- HVAC Component

OS:PortList,
  {db4e65f6-d068-4fc0-806e-63677bf653de}, !- Handle
  {6411bf10-a1a4-4b92-b8b9-3f2c53068ef3}, !- Name
  {3c4933f9-f74e-4d1d-b882-7e88db67e417}; !- HVAC Component

OS:Sizing:Zone,
  {89303975-9f3a-4675-acf1-b4d84dc2eb81}, !- Handle
  {3c4933f9-f74e-4d1d-b882-7e88db67e417}, !- Zone or ZoneList Name
  SupplyAirTemperature,                   !- Zone Cooling Design Supply Air Temperature Input Method
  14,                                     !- Zone Cooling Design Supply Air Temperature {C}
  11.11,                                  !- Zone Cooling Design Supply Air Temperature Difference {deltaC}
  SupplyAirTemperature,                   !- Zone Heating Design Supply Air Temperature Input Method
  40,                                     !- Zone Heating Design Supply Air Temperature {C}
  11.11,                                  !- Zone Heating Design Supply Air Temperature Difference {deltaC}
  0.0085,                                 !- Zone Cooling Design Supply Air Humidity Ratio {kg-H2O/kg-air}
  0.008,                                  !- Zone Heating Design Supply Air Humidity Ratio {kg-H2O/kg-air}
  ,                                       !- Zone Heating Sizing Factor
  ,                                       !- Zone Cooling Sizing Factor
  DesignDay,                              !- Cooling Design Air Flow Method
  ,                                       !- Cooling Design Air Flow Rate {m3/s}
  ,                                       !- Cooling Minimum Air Flow per Zone Floor Area {m3/s-m2}
  ,                                       !- Cooling Minimum Air Flow {m3/s}
  ,                                       !- Cooling Minimum Air Flow Fraction
  DesignDay,                              !- Heating Design Air Flow Method
  ,                                       !- Heating Design Air Flow Rate {m3/s}
  ,                                       !- Heating Maximum Air Flow per Zone Floor Area {m3/s-m2}
  ,                                       !- Heating Maximum Air Flow {m3/s}
  ,                                       !- Heating Maximum Air Flow Fraction
  ,                                       !- Design Zone Air Distribution Effectiveness in Cooling Mode
  ,                                       !- Design Zone Air Distribution Effectiveness in Heating Mode
  No,                                     !- Account for Dedicated Outdoor Air System
  NeutralSupplyAir,                       !- Dedicated Outdoor Air System Control Strategy
  autosize,                               !- Dedicated Outdoor Air Low Setpoint Temperature for Design {C}
  autosize;                               !- Dedicated Outdoor Air High Setpoint Temperature for Design {C}

OS:ZoneHVAC:EquipmentList,
  {dcda0134-8e4a-4c95-85e3-76d2c40ef7b2}, !- Handle
  Zone HVAC Equipment List 1,             !- Name
  {3c4933f9-f74e-4d1d-b882-7e88db67e417}; !- Thermal Zone

OS:Space,
  {8a18e199-6cd8-4517-89f3-97b36f6c183d}, !- Handle
  unfinished attic space,                 !- Name
  ,                                       !- Space Type Name
  ,                                       !- Default Construction Set Name
  ,                                       !- Default Schedule Set Name
  ,                                       !- Direction of Relative North {deg}
  ,                                       !- X Origin {m}
  ,                                       !- Y Origin {m}
  ,                                       !- Z Origin {m}
  ,                                       !- Building Story Name
  {3c4933f9-f74e-4d1d-b882-7e88db67e417}, !- Thermal Zone Name
  ,                                       !- Part of Total Floor Area
  ,                                       !- Design Specification Outdoor Air Object Name
  {52485a3e-a21a-485b-b600-336a16f3400a}; !- Building Unit Name

OS:ThermalZone,
  {352e07d0-135b-48b9-9e54-d7f3b231c2d8}, !- Handle
  living zone,                            !- Name
  ,                                       !- Multiplier
  ,                                       !- Ceiling Height {m}
  2.8316846592e-005,                      !- Volume {m3}
  ,                                       !- Floor Area {m2}
  ,                                       !- Zone Inside Convection Algorithm
  ,                                       !- Zone Outside Convection Algorithm
  ,                                       !- Zone Conditioning Equipment List Name
  {6bd5d2d8-0c73-4507-9115-17fc15c4c34a}, !- Zone Air Inlet Port List
  {b866b843-da10-4f88-9f9c-8540685ea409}, !- Zone Air Exhaust Port List
  {2f50b480-c5dc-48c7-80f6-67641727b048}, !- Zone Air Node Name
  {685af524-88d1-4067-9329-b33416d9c62f}, !- Zone Return Air Node Name
  ,                                       !- Primary Daylighting Control Name
  ,                                       !- Fraction of Zone Controlled by Primary Daylighting Control
  ,                                       !- Secondary Daylighting Control Name
  ,                                       !- Fraction of Zone Controlled by Secondary Daylighting Control
  ,                                       !- Illuminance Map Name
  ,                                       !- Group Rendering Name
  {1fe42795-1962-4e9e-ac4d-fcc38c6af0b9}, !- Thermostat Name
  No;                                     !- Use Ideal Air Loads

OS:Node,
  {62637303-2489-4f36-8ba6-eea38167ff81}, !- Handle
  Node 2,                                 !- Name
  {2f50b480-c5dc-48c7-80f6-67641727b048}, !- Inlet Port
  ;                                       !- Outlet Port

OS:Connection,
  {2f50b480-c5dc-48c7-80f6-67641727b048}, !- Handle
  {079982ad-8b3e-4ddb-87bc-a7ec29305ecd}, !- Name
  {352e07d0-135b-48b9-9e54-d7f3b231c2d8}, !- Source Object
  11,                                     !- Outlet Port
  {62637303-2489-4f36-8ba6-eea38167ff81}, !- Target Object
  2;                                      !- Inlet Port

OS:PortList,
  {6bd5d2d8-0c73-4507-9115-17fc15c4c34a}, !- Handle
  {05a0abd8-b422-4d3a-882a-c1be780624f8}, !- Name
  {352e07d0-135b-48b9-9e54-d7f3b231c2d8}, !- HVAC Component
  {a583a804-6bc4-4d05-a291-4febf4ab0f94}; !- Port 1

OS:PortList,
  {b866b843-da10-4f88-9f9c-8540685ea409}, !- Handle
  {02297520-398b-4faf-8d3e-75c333aa7296}, !- Name
  {352e07d0-135b-48b9-9e54-d7f3b231c2d8}; !- HVAC Component

OS:Sizing:Zone,
  {57bb5a30-7a7a-47a4-83e3-3c77c219ae5a}, !- Handle
  {352e07d0-135b-48b9-9e54-d7f3b231c2d8}, !- Zone or ZoneList Name
  SupplyAirTemperature,                   !- Zone Cooling Design Supply Air Temperature Input Method
  14,                                     !- Zone Cooling Design Supply Air Temperature {C}
  11.11,                                  !- Zone Cooling Design Supply Air Temperature Difference {deltaC}
  SupplyAirTemperature,                   !- Zone Heating Design Supply Air Temperature Input Method
  40,                                     !- Zone Heating Design Supply Air Temperature {C}
  11.11,                                  !- Zone Heating Design Supply Air Temperature Difference {deltaC}
  0.0085,                                 !- Zone Cooling Design Supply Air Humidity Ratio {kg-H2O/kg-air}
  0.008,                                  !- Zone Heating Design Supply Air Humidity Ratio {kg-H2O/kg-air}
  ,                                       !- Zone Heating Sizing Factor
  ,                                       !- Zone Cooling Sizing Factor
  DesignDay,                              !- Cooling Design Air Flow Method
  ,                                       !- Cooling Design Air Flow Rate {m3/s}
  ,                                       !- Cooling Minimum Air Flow per Zone Floor Area {m3/s-m2}
  ,                                       !- Cooling Minimum Air Flow {m3/s}
  ,                                       !- Cooling Minimum Air Flow Fraction
  DesignDay,                              !- Heating Design Air Flow Method
  ,                                       !- Heating Design Air Flow Rate {m3/s}
  ,                                       !- Heating Maximum Air Flow per Zone Floor Area {m3/s-m2}
  ,                                       !- Heating Maximum Air Flow {m3/s}
  ,                                       !- Heating Maximum Air Flow Fraction
  ,                                       !- Design Zone Air Distribution Effectiveness in Cooling Mode
  ,                                       !- Design Zone Air Distribution Effectiveness in Heating Mode
  No,                                     !- Account for Dedicated Outdoor Air System
  NeutralSupplyAir,                       !- Dedicated Outdoor Air System Control Strategy
  autosize,                               !- Dedicated Outdoor Air Low Setpoint Temperature for Design {C}
  autosize;                               !- Dedicated Outdoor Air High Setpoint Temperature for Design {C}

OS:ZoneHVAC:EquipmentList,
  {0d3b609c-a72b-441b-bd43-a4304a7cb4e2}, !- Handle
  Zone HVAC Equipment List 2,             !- Name
  {352e07d0-135b-48b9-9e54-d7f3b231c2d8}, !- Thermal Zone
  {0f45f486-17f2-4bb3-8e22-530e2ffab285}, !- Zone Equipment 1
  1,                                      !- Zone Equipment Cooling Sequence 1
  1;                                      !- Zone Equipment Heating or No-Load Sequence 1

OS:Space,
  {8d242b01-4c19-4c7b-81d1-039ff11ad56e}, !- Handle
  living space,                           !- Name
  ,                                       !- Space Type Name
  ,                                       !- Default Construction Set Name
  ,                                       !- Default Schedule Set Name
  ,                                       !- Direction of Relative North {deg}
  ,                                       !- X Origin {m}
  ,                                       !- Y Origin {m}
  ,                                       !- Z Origin {m}
  ,                                       !- Building Story Name
  {352e07d0-135b-48b9-9e54-d7f3b231c2d8}, !- Thermal Zone Name
  ,                                       !- Part of Total Floor Area
  ,                                       !- Design Specification Outdoor Air Object Name
  {52485a3e-a21a-485b-b600-336a16f3400a}; !- Building Unit Name

OS:ThermalZone,
  {695ecf3a-ef8d-4f63-b1d4-77d5c8083fe1}, !- Handle
  finished basement zone,                 !- Name
  ,                                       !- Multiplier
  ,                                       !- Ceiling Height {m}
  693.762741504,                          !- Volume {m3}
  ,                                       !- Floor Area {m2}
  ,                                       !- Zone Inside Convection Algorithm
  ,                                       !- Zone Outside Convection Algorithm
  ,                                       !- Zone Conditioning Equipment List Name
  {81cc0baf-1be8-45d1-ac67-692635beef62}, !- Zone Air Inlet Port List
  {4edda10b-43dc-4bcf-9149-31fa6fd96614}, !- Zone Air Exhaust Port List
  {148fee85-53e1-4155-8680-7174452cc38b}, !- Zone Air Node Name
  {33a5e064-2ee0-43c6-b08c-dd178de3014d}, !- Zone Return Air Node Name
  ,                                       !- Primary Daylighting Control Name
  ,                                       !- Fraction of Zone Controlled by Primary Daylighting Control
  ,                                       !- Secondary Daylighting Control Name
  ,                                       !- Fraction of Zone Controlled by Secondary Daylighting Control
  ,                                       !- Illuminance Map Name
  ,                                       !- Group Rendering Name
  {4d055d2e-af97-44c4-8640-8f523c318106}, !- Thermostat Name
  No;                                     !- Use Ideal Air Loads

OS:Node,
  {252d826d-182f-40dc-b907-1e17844e7ae2}, !- Handle
  Node 3,                                 !- Name
  {148fee85-53e1-4155-8680-7174452cc38b}, !- Inlet Port
  ;                                       !- Outlet Port

OS:Connection,
  {148fee85-53e1-4155-8680-7174452cc38b}, !- Handle
  {87d41390-1736-4e5b-9416-6effc216cdd0}, !- Name
  {695ecf3a-ef8d-4f63-b1d4-77d5c8083fe1}, !- Source Object
  11,                                     !- Outlet Port
  {252d826d-182f-40dc-b907-1e17844e7ae2}, !- Target Object
  2;                                      !- Inlet Port

OS:PortList,
  {81cc0baf-1be8-45d1-ac67-692635beef62}, !- Handle
  {96883208-4d4f-4498-a30a-2a694b6bfd37}, !- Name
  {695ecf3a-ef8d-4f63-b1d4-77d5c8083fe1}, !- HVAC Component
  {cf0b739e-baa7-4f6d-bc5d-c5bfe0d4f3a2}; !- Port 1

OS:PortList,
  {4edda10b-43dc-4bcf-9149-31fa6fd96614}, !- Handle
  {ba6f4678-74ec-41c1-ad08-2b0c1d1263c7}, !- Name
  {695ecf3a-ef8d-4f63-b1d4-77d5c8083fe1}; !- HVAC Component

OS:Sizing:Zone,
  {3f454652-05b8-45ed-96dd-7d3a9bfcfe78}, !- Handle
  {695ecf3a-ef8d-4f63-b1d4-77d5c8083fe1}, !- Zone or ZoneList Name
  SupplyAirTemperature,                   !- Zone Cooling Design Supply Air Temperature Input Method
  14,                                     !- Zone Cooling Design Supply Air Temperature {C}
  11.11,                                  !- Zone Cooling Design Supply Air Temperature Difference {deltaC}
  SupplyAirTemperature,                   !- Zone Heating Design Supply Air Temperature Input Method
  40,                                     !- Zone Heating Design Supply Air Temperature {C}
  11.11,                                  !- Zone Heating Design Supply Air Temperature Difference {deltaC}
  0.0085,                                 !- Zone Cooling Design Supply Air Humidity Ratio {kg-H2O/kg-air}
  0.008,                                  !- Zone Heating Design Supply Air Humidity Ratio {kg-H2O/kg-air}
  ,                                       !- Zone Heating Sizing Factor
  ,                                       !- Zone Cooling Sizing Factor
  DesignDay,                              !- Cooling Design Air Flow Method
  ,                                       !- Cooling Design Air Flow Rate {m3/s}
  ,                                       !- Cooling Minimum Air Flow per Zone Floor Area {m3/s-m2}
  ,                                       !- Cooling Minimum Air Flow {m3/s}
  ,                                       !- Cooling Minimum Air Flow Fraction
  DesignDay,                              !- Heating Design Air Flow Method
  ,                                       !- Heating Design Air Flow Rate {m3/s}
  ,                                       !- Heating Maximum Air Flow per Zone Floor Area {m3/s-m2}
  ,                                       !- Heating Maximum Air Flow {m3/s}
  ,                                       !- Heating Maximum Air Flow Fraction
  ,                                       !- Design Zone Air Distribution Effectiveness in Cooling Mode
  ,                                       !- Design Zone Air Distribution Effectiveness in Heating Mode
  No,                                     !- Account for Dedicated Outdoor Air System
  NeutralSupplyAir,                       !- Dedicated Outdoor Air System Control Strategy
  autosize,                               !- Dedicated Outdoor Air Low Setpoint Temperature for Design {C}
  autosize;                               !- Dedicated Outdoor Air High Setpoint Temperature for Design {C}

OS:ZoneHVAC:EquipmentList,
  {df445924-f9cf-49c3-a774-b123697033af}, !- Handle
  Zone HVAC Equipment List 3,             !- Name
  {695ecf3a-ef8d-4f63-b1d4-77d5c8083fe1}, !- Thermal Zone
  {fbe45748-cbbf-4e91-8ec9-c33a37b7eeb9}, !- Zone Equipment 1
  1,                                      !- Zone Equipment Cooling Sequence 1
  1;                                      !- Zone Equipment Heating or No-Load Sequence 1

OS:Space,
  {4dfe035a-a007-42a3-a7be-96b5689756b4}, !- Handle
  finished basement space,                !- Name
  ,                                       !- Space Type Name
  ,                                       !- Default Construction Set Name
  ,                                       !- Default Schedule Set Name
  ,                                       !- Direction of Relative North {deg}
  ,                                       !- X Origin {m}
  ,                                       !- Y Origin {m}
  ,                                       !- Z Origin {m}
  ,                                       !- Building Story Name
  {695ecf3a-ef8d-4f63-b1d4-77d5c8083fe1}, !- Thermal Zone Name
  ,                                       !- Part of Total Floor Area
  ,                                       !- Design Specification Outdoor Air Object Name
  {52485a3e-a21a-485b-b600-336a16f3400a}; !- Building Unit Name

OS:Surface,
  {4ecb94fc-5de3-435b-9e2e-620d14e4e093}, !- Handle
  surface Window_ID1,                     !- Name
  Wall,                                   !- Surface Type
  {0fbe60a8-0fe0-4c00-a780-30a86b7adbea}, !- Construction Name
  {8d242b01-4c19-4c7b-81d1-039ff11ad56e}, !- Space Name
  Adiabatic,                              !- Outside Boundary Condition
  ,                                       !- Outside Boundary Condition Object
  NoSun,                                  !- Sun Exposure
  NoWind,                                 !- Wind Exposure
  ,                                       !- View Factor to Ground
  ,                                       !- Number of Vertices
  7.31620000000001, -52.5, 0,             !- X,Y,Z Vertex 1 {m}
  7.31620000000001, -52.5, 1.526,         !- X,Y,Z Vertex 2 {m}
  -7.31619999999999, -52.5, 1.526,        !- X,Y,Z Vertex 3 {m}
  -7.31619999999999, -52.5, 0;            !- X,Y,Z Vertex 4 {m}

OS:SubSurface,
  {5879a0a1-456c-4b90-a733-4a1f5fa7a360}, !- Handle
  Window_ID1,                             !- Name
  FixedWindow,                            !- Sub Surface Type
  {24b57e43-6daf-4e29-885e-ab8c0197567d}, !- Construction Name
  {4ecb94fc-5de3-435b-9e2e-620d14e4e093}, !- Surface Name
  ,                                       !- Outside Boundary Condition Object
  ,                                       !- View Factor to Ground
  {5ca07d24-8f8b-4704-a8eb-df6a090ccf5d}, !- Shading Control Name
  ,                                       !- Frame and Divider Name
  ,                                       !- Multiplier
  ,                                       !- Number of Vertices
  7.31520000000001, -52.5, 0.001,         !- X,Y,Z Vertex 1 {m}
  7.31520000000001, -52.5, 1.525,         !- X,Y,Z Vertex 2 {m}
  -7.31519999999999, -52.5, 1.525,        !- X,Y,Z Vertex 3 {m}
  -7.31519999999999, -52.5, 0.001;        !- X,Y,Z Vertex 4 {m}

OS:Surface,
  {4fab0dac-95aa-47b6-84cb-0ca74118a15b}, !- Handle
  surface Window_ID2,                     !- Name
  Wall,                                   !- Surface Type
  {0fbe60a8-0fe0-4c00-a780-30a86b7adbea}, !- Construction Name
  {8d242b01-4c19-4c7b-81d1-039ff11ad56e}, !- Space Name
  Adiabatic,                              !- Outside Boundary Condition
  ,                                       !- Outside Boundary Condition Object
  NoSun,                                  !- Sun Exposure
  NoWind,                                 !- Wind Exposure
  ,                                       !- View Factor to Ground
  ,                                       !- Number of Vertices
  -3.6586, 55, 0,                         !- X,Y,Z Vertex 1 {m}
  -3.6586, 55, 1.526,                     !- X,Y,Z Vertex 2 {m}
  3.6586, 55, 1.526,                      !- X,Y,Z Vertex 3 {m}
  3.6586, 55, 0;                          !- X,Y,Z Vertex 4 {m}

OS:SubSurface,
  {e19ac68a-0c86-4db7-8110-1913adf670f5}, !- Handle
  Window_ID2,                             !- Name
  FixedWindow,                            !- Sub Surface Type
  {d705ae7b-45d9-45a7-b92a-43959bdaffb0}, !- Construction Name