
OS:Version,
  {fc003c06-618b-4051-9b37-6b6f71b12672}, !- Handle
  2.2.0;                                  !- Version Identifier

OS:Building,
  {bf305633-c5a1-4881-9edf-ca5e1a8e1274}, !- Handle
  FIXME,                                  !- Name
  ,                                       !- Building Sector Type
  ,                                       !- North Axis {deg}
  ,                                       !- Nominal Floor to Floor Height {m}
  ,                                       !- Space Type Name
  ,                                       !- Default Construction Set Name
  ,                                       !- Default Schedule Set Name
  3,                                      !- Standards Number of Stories
  2,                                      !- Standards Number of Above Ground Stories
  singlefamilydetached,                   !- Standards Building Type
  1;                                      !- Standards Number of Living Units

OS:YearDescription,
  {513d8dda-86cb-442a-b01c-1f7f0e0ac70e}; !- Handle

OS:SimulationControl,
  {2c487a4c-bac9-4ac5-b669-1e49d9da7c2b}, !- Handle
  ,                                       !- Do Zone Sizing Calculation
  ,                                       !- Do System Sizing Calculation
  ,                                       !- Do Plant Sizing Calculation
  No,                                     !- Run Simulation for Sizing Periods
  ;                                       !- Run Simulation for Weather File Run Periods

OS:Timestep,
  {4ebc9f1e-4707-402e-9844-67eb1ffbd522}, !- Handle
  1;                                      !- Number of Timesteps per Hour

OS:RunPeriod,
  {28df894d-6af9-4fb8-8f56-df1753344aa3}, !- Handle
  Run Period,                             !- Name
  1,                                      !- Begin Month
  1,                                      !- Begin Day of Month
  12,                                     !- End Month
  31,                                     !- End Day of Month
  ,                                       !- Use Weather File Holidays and Special Days
  ,                                       !- Use Weather File Daylight Saving Period
  ,                                       !- Apply Weekend Holiday Rule
  ,                                       !- Use Weather File Rain Indicators
  ,                                       !- Use Weather File Snow Indicators
  ;                                       !- Number of Times Runperiod to be Repeated

OS:Sizing:Parameters,
  {dde5af6f-7923-4600-a28a-7556673a0266}, !- Handle
  1.0,                                    !- Heating Sizing Factor
  1.0;                                    !- Cooling Sizing Factor

OS:ShadowCalculation,
  {ca758bea-4416-4626-9bba-3d8795c79bd6}, !- Handle
  20,                                     !- Calculation Frequency
  200;                                    !- Maximum Figures in Shadow Overlap Calculations

OS:SurfaceConvectionAlgorithm:Inside,
  {aaabfc36-718a-4ab0-b622-f186ebb45230}, !- Handle
  TARP;                                   !- Algorithm

OS:SurfaceConvectionAlgorithm:Outside,
  {9a0a9f6f-4bbd-4b12-a121-9492a1fcd7d6}, !- Handle
  DOE-2;                                  !- Algorithm

OS:HeatBalanceAlgorithm,
  {9d93e563-e1e0-46d7-9e39-d1c8aceb7212}, !- Handle
  ConductionTransferFunction,             !- Algorithm
  200;                                    !- Surface Temperature Upper Limit {C}

OS:ZoneCapacitanceMultiplier:ResearchSpecial,
  {6bfced16-b16f-47f6-8223-f7e267d75d19}, !- Handle
  ,                                       !- Temperature Capacity Multiplier
  15,                                     !- Humidity Capacity Multiplier
  ;                                       !- Carbon Dioxide Capacity Multiplier

OS:Site,
  {df8c2ce9-7666-47c4-8c71-87d593121955}, !- Handle
  Denver Intl Ap_CO_USA,                  !- Name
  39.83,                                  !- Latitude {deg}
  -104.65,                                !- Longitude {deg}
  -7,                                     !- Time Zone {hr}
  1650,                                   !- Elevation {m}
  Suburbs;                                !- Terrain

OS:WeatherFile,
  {c4046fd5-cb27-40e0-8e80-aa844562230c}, !- Handle
  Denver Intl Ap,                         !- City
  CO,                                     !- State Province Region
  USA,                                    !- Country
  TMY3,                                   !- Data Source
  725650,                                 !- WMO Number
  39.83,                                  !- Latitude {deg}
  -104.65,                                !- Longitude {deg}
  -7,                                     !- Time Zone {hr}
  1650,                                   !- Elevation {m}
  file:///C:/Users/shorowit/Documents/GitHub/OpenStudio-ERI/workflow/sample_files/denver.epw, !- Url
  E23378AA;                               !- Checksum

OS:ClimateZones,
  {86b1ae1b-2be6-4135-9122-8e7c0b0d8a1f}, !- Handle
  ,                                       !- Active Institution
  ,                                       !- Active Year
  ,                                       !- Climate Zone Institution Name 1
  ,                                       !- Climate Zone Document Name 1
  ,                                       !- Climate Zone Document Year 1
  ,                                       !- Climate Zone Value 1
  Building America,                       !- Climate Zone Institution Name 2
  ,                                       !- Climate Zone Document Name 2
  0,                                      !- Climate Zone Document Year 2
  Cold;                                   !- Climate Zone Value 2

OS:Site:WaterMainsTemperature,
  {eb29ff30-0a3d-4f4a-94bd-d3b53e4cb6f9}, !- Handle
  Correlation,                            !- Calculation Method
  ,                                       !- Temperature Schedule Name
  10.8753424657535,                       !- Annual Average Outdoor Air Temperature {C}
  23.1524007936508;                       !- Maximum Difference In Monthly Average Outdoor Air Temperatures {deltaC}

OS:Site:GroundTemperature:BuildingSurface,
  {c226ace2-0be8-43a4-83f4-6f5e843fa876}, !- Handle
  6.71220717182217,                       !- January Ground Temperature {C}
  4.94160315792055,                       !- February Ground Temperature {C}
  4.79814094732353,                       !- March Ground Temperature {C}
  5.63626323951138,                       !- April Ground Temperature {C}
  9.00496422788996,                       !- May Ground Temperature {C}
  12.3607918495591,                       !- June Ground Temperature {C}
  15.2732325604715,                       !- July Ground Temperature {C}
  17.1228426206644,                       !- August Ground Temperature {C}
  17.2883239591317,                       !- September Ground Temperature {C}
  15.7978912711895,                       !- October Ground Temperature {C}
  12.9685430093462,                       !- November Ground Temperature {C}
  9.71587840323366;                       !- December Ground Temperature {C}

OS:Site:GroundTemperature:Deep,
  {bc405de2-86a1-45b9-803b-79753e3918b0}, !- Handle
  10.8753424657535,                       !- January Deep Ground Temperature {C}
  10.8753424657535,                       !- February Deep Ground Temperature {C}
  10.8753424657535,                       !- March Deep Ground Temperature {C}
  10.8753424657535,                       !- April Deep Ground Temperature {C}
  10.8753424657535,                       !- May Deep Ground Temperature {C}
  10.8753424657535,                       !- June Deep Ground Temperature {C}
  10.8753424657535,                       !- July Deep Ground Temperature {C}
  10.8753424657535,                       !- August Deep Ground Temperature {C}
  10.8753424657535,                       !- September Deep Ground Temperature {C}
  10.8753424657535,                       !- October Deep Ground Temperature {C}
  10.8753424657535,                       !- November Deep Ground Temperature {C}
  10.8753424657535;                       !- December Deep Ground Temperature {C}

OS:ThermalZone,
  {7075c412-699c-485d-a247-5c915f2bd346}, !- Handle
  finished basement zone,                 !- Name
  ,                                       !- Multiplier
  ,                                       !- Ceiling Height {m}
  693.762741504,                          !- Volume {m3}
  ,                                       !- Floor Area {m2}
  ,                                       !- Zone Inside Convection Algorithm
  ,                                       !- Zone Outside Convection Algorithm
  ,                                       !- Zone Conditioning Equipment List Name
  {55fd1aa9-e48f-4a85-83b5-612b8dab7fe6}, !- Zone Air Inlet Port List
  {ce64e307-de0f-4618-926f-634b1989a372}, !- Zone Air Exhaust Port List
  {dbd84381-22a9-41a7-8519-b4a6e0227d41}, !- Zone Air Node Name
  {a94b7117-d95a-4ffc-9d1b-aedeeffdff71}, !- Zone Return Air Node Name
  ,                                       !- Primary Daylighting Control Name
  ,                                       !- Fraction of Zone Controlled by Primary Daylighting Control
  ,                                       !- Secondary Daylighting Control Name
  ,                                       !- Fraction of Zone Controlled by Secondary Daylighting Control
  ,                                       !- Illuminance Map Name
  ,                                       !- Group Rendering Name
  {ee2918c3-d30b-4d5b-82db-d10fdc552882}, !- Thermostat Name
  No;                                     !- Use Ideal Air Loads

OS:Node,
  {8d559203-193e-4600-8247-c7cf7f5788ca}, !- Handle
  Node 1,                                 !- Name
  {dbd84381-22a9-41a7-8519-b4a6e0227d41}, !- Inlet Port
  ;                                       !- Outlet Port

OS:Connection,
  {dbd84381-22a9-41a7-8519-b4a6e0227d41}, !- Handle
  {8d0923d2-b2be-4e23-9e61-bbf73ea91de2}, !- Name
  {7075c412-699c-485d-a247-5c915f2bd346}, !- Source Object
  11,                                     !- Outlet Port
  {8d559203-193e-4600-8247-c7cf7f5788ca}, !- Target Object
  2;                                      !- Inlet Port

OS:PortList,
  {55fd1aa9-e48f-4a85-83b5-612b8dab7fe6}, !- Handle
  {5eb0ec50-52be-41df-bf62-2ebfbf3ee28b}, !- Name
  {7075c412-699c-485d-a247-5c915f2bd346}, !- HVAC Component
  {065a2d72-5d91-4982-9766-f4e88191e662}; !- Port 1

OS:PortList,
  {ce64e307-de0f-4618-926f-634b1989a372}, !- Handle
  {2099b15d-8b9a-4551-ba39-8cac0332017c}, !- Name
  {7075c412-699c-485d-a247-5c915f2bd346}; !- HVAC Component

OS:Sizing:Zone,
  {e39ebd44-df58-4bb7-9308-2cbaa6b5befe}, !- Handle
  {7075c412-699c-485d-a247-5c915f2bd346}, !- Zone or ZoneList Name
  SupplyAirTemperature,                   !- Zone Cooling Design Supply Air Temperature Input Method
  14,                                     !- Zone Cooling Design Supply Air Temperature {C}
  11.11,                                  !- Zone Cooling Design Supply Air Temperature Difference {deltaC}
  SupplyAirTemperature,                   !- Zone Heating Design Supply Air Temperature Input Method
  40,                                     !- Zone Heating Design Supply Air Temperature {C}
  11.11,                                  !- Zone Heating Design Supply Air Temperature Difference {deltaC}
  0.0085,                                 !- Zone Cooling Design Supply Air Humidity Ratio {kg-H2O/kg-air}
  0.008,                                  !- Zone Heating Design Supply Air Humidity Ratio {kg-H2O/kg-air}
  ,                                       !- Zone Heating Sizing Factor
  ,                                       !- Zone Cooling Sizing Factor
  DesignDay,                              !- Cooling Design Air Flow Method
  ,                                       !- Cooling Design Air Flow Rate {m3/s}
  ,                                       !- Cooling Minimum Air Flow per Zone Floor Area {m3/s-m2}
  ,                                       !- Cooling Minimum Air Flow {m3/s}
  ,                                       !- Cooling Minimum Air Flow Fraction
  DesignDay,                              !- Heating Design Air Flow Method
  ,                                       !- Heating Design Air Flow Rate {m3/s}
  ,                                       !- Heating Maximum Air Flow per Zone Floor Area {m3/s-m2}
  ,                                       !- Heating Maximum Air Flow {m3/s}
  ,                                       !- Heating Maximum Air Flow Fraction
  ,                                       !- Design Zone Air Distribution Effectiveness in Cooling Mode
  ,                                       !- Design Zone Air Distribution Effectiveness in Heating Mode
  No,                                     !- Account for Dedicated Outdoor Air System
  NeutralSupplyAir,                       !- Dedicated Outdoor Air System Control Strategy
  autosize,                               !- Dedicated Outdoor Air Low Setpoint Temperature for Design {C}
  autosize;                               !- Dedicated Outdoor Air High Setpoint Temperature for Design {C}

OS:ZoneHVAC:EquipmentList,
  {7727c2af-e0b3-44be-8057-b31b2e948c6e}, !- Handle
  Zone HVAC Equipment List 1,             !- Name
  {7075c412-699c-485d-a247-5c915f2bd346}, !- Thermal Zone
  {4d812e5a-eb56-479f-81d1-6d02c9c7082e}, !- Zone Equipment 1
  1,                                      !- Zone Equipment Cooling Sequence 1
  1;                                      !- Zone Equipment Heating or No-Load Sequence 1

OS:Space,
  {172decd9-8671-4ce7-b221-14d3199a0c0c}, !- Handle
  finished basement space,                !- Name
  ,                                       !- Space Type Name
  ,                                       !- Default Construction Set Name
  ,                                       !- Default Schedule Set Name
  ,                                       !- Direction of Relative North {deg}
  ,                                       !- X Origin {m}
  ,                                       !- Y Origin {m}
  ,                                       !- Z Origin {m}
  ,                                       !- Building Story Name
  {7075c412-699c-485d-a247-5c915f2bd346}, !- Thermal Zone Name
  ,                                       !- Part of Total Floor Area
  ,                                       !- Design Specification Outdoor Air Object Name
  {46c9b80e-9873-44a9-97e1-49b8cbe82993}; !- Building Unit Name

OS:ThermalZone,
  {817fa9fc-b257-4f01-81f4-1e4e57a9deb9}, !- Handle
  living zone,                            !- Name
  ,                                       !- Multiplier
  ,                                       !- Ceiling Height {m}
  2.8316846592e-005,                      !- Volume {m3}
  ,                                       !- Floor Area {m2}
  ,                                       !- Zone Inside Convection Algorithm
  ,                                       !- Zone Outside Convection Algorithm
  ,                                       !- Zone Conditioning Equipment List Name
  {1f466254-e7ff-48ea-ba86-6cb5b3cacf58}, !- Zone Air Inlet Port List
  {0bed6015-8e40-4fa3-9cea-9fde2a41d94d}, !- Zone Air Exhaust Port List
  {f8b28754-654c-4205-997b-4d95ba43ff44}, !- Zone Air Node Name
  {1487c309-66ae-4c9a-9089-e1023498b327}, !- Zone Return Air Node Name
  ,                                       !- Primary Daylighting Control Name
  ,                                       !- Fraction of Zone Controlled by Primary Daylighting Control
  ,                                       !- Secondary Daylighting Control Name
  ,                                       !- Fraction of Zone Controlled by Secondary Daylighting Control
  ,                                       !- Illuminance Map Name
  ,                                       !- Group Rendering Name
  {700e9a55-7322-4bee-85ce-65b8de4172bd}, !- Thermostat Name
  No;                                     !- Use Ideal Air Loads

OS:Node,
  {865f88f8-cc79-4e62-a1a5-f3ea78725419}, !- Handle
  Node 2,                                 !- Name
  {f8b28754-654c-4205-997b-4d95ba43ff44}, !- Inlet Port
  ;                                       !- Outlet Port

OS:Connection,
  {f8b28754-654c-4205-997b-4d95ba43ff44}, !- Handle
  {3131fa5d-66e4-481f-98f3-cd7416694c7e}, !- Name
  {817fa9fc-b257-4f01-81f4-1e4e57a9deb9}, !- Source Object
  11,                                     !- Outlet Port
  {865f88f8-cc79-4e62-a1a5-f3ea78725419}, !- Target Object
  2;                                      !- Inlet Port

OS:PortList,
  {1f466254-e7ff-48ea-ba86-6cb5b3cacf58}, !- Handle
  {f7ea6764-0913-40d2-97a0-2e1af52e1573}, !- Name
  {817fa9fc-b257-4f01-81f4-1e4e57a9deb9}, !- HVAC Component
  {b476aac9-862f-465f-b237-85badbb42487}; !- Port 1

OS:PortList,
  {0bed6015-8e40-4fa3-9cea-9fde2a41d94d}, !- Handle
  {a68b5f0a-297a-43b6-b9a1-f855e08051c4}, !- Name
  {817fa9fc-b257-4f01-81f4-1e4e57a9deb9}; !- HVAC Component

OS:Sizing:Zone,
  {e67d9ac0-d1c1-4b86-b366-ee06e5c33cb2}, !- Handle
  {817fa9fc-b257-4f01-81f4-1e4e57a9deb9}, !- Zone or ZoneList Name
  SupplyAirTemperature,                   !- Zone Cooling Design Supply Air Temperature Input Method
  14,                                     !- Zone Cooling Design Supply Air Temperature {C}
  11.11,                                  !- Zone Cooling Design Supply Air Temperature Difference {deltaC}
  SupplyAirTemperature,                   !- Zone Heating Design Supply Air Temperature Input Method
  40,                                     !- Zone Heating Design Supply Air Temperature {C}
  11.11,                                  !- Zone Heating Design Supply Air Temperature Difference {deltaC}
  0.0085,                                 !- Zone Cooling Design Supply Air Humidity Ratio {kg-H2O/kg-air}
  0.008,                                  !- Zone Heating Design Supply Air Humidity Ratio {kg-H2O/kg-air}
  ,                                       !- Zone Heating Sizing Factor
  ,                                       !- Zone Cooling Sizing Factor
  DesignDay,                              !- Cooling Design Air Flow Method
  ,                                       !- Cooling Design Air Flow Rate {m3/s}
  ,                                       !- Cooling Minimum Air Flow per Zone Floor Area {m3/s-m2}
  ,                                       !- Cooling Minimum Air Flow {m3/s}
  ,                                       !- Cooling Minimum Air Flow Fraction
  DesignDay,                              !- Heating Design Air Flow Method
  ,                                       !- Heating Design Air Flow Rate {m3/s}
  ,                                       !- Heating Maximum Air Flow per Zone Floor Area {m3/s-m2}
  ,                                       !- Heating Maximum Air Flow {m3/s}
  ,                                       !- Heating Maximum Air Flow Fraction
  ,                                       !- Design Zone Air Distribution Effectiveness in Cooling Mode
  ,                                       !- Design Zone Air Distribution Effectiveness in Heating Mode
  No,                                     !- Account for Dedicated Outdoor Air System
  NeutralSupplyAir,                       !- Dedicated Outdoor Air System Control Strategy
  autosize,                               !- Dedicated Outdoor Air Low Setpoint Temperature for Design {C}
  autosize;                               !- Dedicated Outdoor Air High Setpoint Temperature for Design {C}

OS:ZoneHVAC:EquipmentList,
  {ad4ab78d-be8b-4198-bda5-5ce69eef5d5f}, !- Handle
  Zone HVAC Equipment List 2,             !- Name
  {817fa9fc-b257-4f01-81f4-1e4e57a9deb9}, !- Thermal Zone
  {98f39995-eef2-4aea-9578-938052602fa5}, !- Zone Equipment 1
  1,                                      !- Zone Equipment Cooling Sequence 1
  1;                                      !- Zone Equipment Heating or No-Load Sequence 1

OS:Space,
  {704de395-d0a8-4eb3-bd07-3b5fe465ab26}, !- Handle
  living space,                           !- Name
  ,                                       !- Space Type Name
  ,                                       !- Default Construction Set Name
  ,                                       !- Default Schedule Set Name
  ,                                       !- Direction of Relative North {deg}
  ,                                       !- X Origin {m}
  ,                                       !- Y Origin {m}
  ,                                       !- Z Origin {m}
  ,                                       !- Building Story Name
  {817fa9fc-b257-4f01-81f4-1e4e57a9deb9}, !- Thermal Zone Name
  ,                                       !- Part of Total Floor Area
  ,                                       !- Design Specification Outdoor Air Object Name
  {46c9b80e-9873-44a9-97e1-49b8cbe82993}; !- Building Unit Name

OS:ThermalZone,
  {b3e44220-d385-4494-9c10-25b3a7083261}, !- Handle
  unfinished attic zone,                  !- Name
  ,                                       !- Multiplier
  ,                                       !- Ceiling Height {m}
  2.8316846592e-005,                      !- Volume {m3}
  ,                                       !- Floor Area {m2}
  ,                                       !- Zone Inside Convection Algorithm
  ,                                       !- Zone Outside Convection Algorithm
  ,                                       !- Zone Conditioning Equipment List Name
  {f89e169d-66cd-4a39-a0a6-477022dacc82}, !- Zone Air Inlet Port List
  {a6640907-c7c9-4d45-8755-4b185dff0236}, !- Zone Air Exhaust Port List
  {28f16c6b-9e74-43f3-89ee-ff3019fb7406}, !- Zone Air Node Name
  ,                                       !- Zone Return Air Node Name
  ,                                       !- Primary Daylighting Control Name
  ,                                       !- Fraction of Zone Controlled by Primary Daylighting Control
  ,                                       !- Secondary Daylighting Control Name
  ,                                       !- Fraction of Zone Controlled by Secondary Daylighting Control
  ,                                       !- Illuminance Map Name
  ,                                       !- Group Rendering Name
  ,                                       !- Thermostat Name
  No;                                     !- Use Ideal Air Loads

OS:Node,
  {871d2d9e-9fae-436c-9ce0-7e942da5c73f}, !- Handle
  Node 3,                                 !- Name
  {28f16c6b-9e74-43f3-89ee-ff3019fb7406}, !- Inlet Port
  ;                                       !- Outlet Port

OS:Connection,
  {28f16c6b-9e74-43f3-89ee-ff3019fb7406}, !- Handle
  {dcedd650-42d5-4bb8-aea6-7b2736ed008b}, !- Name
  {b3e44220-d385-4494-9c10-25b3a7083261}, !- Source Object
  11,                                     !- Outlet Port
  {871d2d9e-9fae-436c-9ce0-7e942da5c73f}, !- Target Object
  2;                                      !- Inlet Port

OS:PortList,
  {f89e169d-66cd-4a39-a0a6-477022dacc82}, !- Handle
  {6232f97d-2fd7-49ec-980f-e6d0ed7e314e}, !- Name
  {b3e44220-d385-4494-9c10-25b3a7083261}; !- HVAC Component

OS:PortList,
  {a6640907-c7c9-4d45-8755-4b185dff0236}, !- Handle
  {2905a06e-8e57-4137-8b58-a4db8f3e944a}, !- Name
  {b3e44220-d385-4494-9c10-25b3a7083261}; !- HVAC Component

OS:Sizing:Zone,
  {df5d263e-9f1f-4636-8de2-1d5f7da18999}, !- Handle
  {b3e44220-d385-4494-9c10-25b3a7083261}, !- Zone or ZoneList Name
  SupplyAirTemperature,                   !- Zone Cooling Design Supply Air Temperature Input Method
  14,                                     !- Zone Cooling Design Supply Air Temperature {C}
  11.11,                                  !- Zone Cooling Design Supply Air Temperature Difference {deltaC}
  SupplyAirTemperature,                   !- Zone Heating Design Supply Air Temperature Input Method
  40,                                     !- Zone Heating Design Supply Air Temperature {C}
  11.11,                                  !- Zone Heating Design Supply Air Temperature Difference {deltaC}
  0.0085,                                 !- Zone Cooling Design Supply Air Humidity Ratio {kg-H2O/kg-air}
  0.008,                                  !- Zone Heating Design Supply Air Humidity Ratio {kg-H2O/kg-air}
  ,                                       !- Zone Heating Sizing Factor
  ,                                       !- Zone Cooling Sizing Factor
  DesignDay,                              !- Cooling Design Air Flow Method
  ,                                       !- Cooling Design Air Flow Rate {m3/s}
  ,                                       !- Cooling Minimum Air Flow per Zone Floor Area {m3/s-m2}
  ,                                       !- Cooling Minimum Air Flow {m3/s}
  ,                                       !- Cooling Minimum Air Flow Fraction
  DesignDay,                              !- Heating Design Air Flow Method
  ,                                       !- Heating Design Air Flow Rate {m3/s}
  ,                                       !- Heating Maximum Air Flow per Zone Floor Area {m3/s-m2}
  ,                                       !- Heating Maximum Air Flow {m3/s}
  ,                                       !- Heating Maximum Air Flow Fraction
  ,                                       !- Design Zone Air Distribution Effectiveness in Cooling Mode
  ,                                       !- Design Zone Air Distribution Effectiveness in Heating Mode
  No,                                     !- Account for Dedicated Outdoor Air System
  NeutralSupplyAir,                       !- Dedicated Outdoor Air System Control Strategy
  autosize,                               !- Dedicated Outdoor Air Low Setpoint Temperature for Design {C}
  autosize;                               !- Dedicated Outdoor Air High Setpoint Temperature for Design {C}

OS:ZoneHVAC:EquipmentList,
  {81601f95-da66-40bd-8046-444680d67a6a}, !- Handle
  Zone HVAC Equipment List 3,             !- Name
  {b3e44220-d385-4494-9c10-25b3a7083261}; !- Thermal Zone

OS:Space,
  {b20f6a24-b2d6-406a-bbc6-16854d09863d}, !- Handle
  unfinished attic space,                 !- Name
  ,                                       !- Space Type Name
  ,                                       !- Default Construction Set Name
  ,                                       !- Default Schedule Set Name
  ,                                       !- Direction of Relative North {deg}
  ,                                       !- X Origin {m}
  ,                                       !- Y Origin {m}
  ,                                       !- Z Origin {m}
  ,                                       !- Building Story Name
  {b3e44220-d385-4494-9c10-25b3a7083261}, !- Thermal Zone Name
  ,                                       !- Part of Total Floor Area
  ,                                       !- Design Specification Outdoor Air Object Name
  {46c9b80e-9873-44a9-97e1-49b8cbe82993}; !- Building Unit Name

OS:Surface,
  {994a40a9-c1dc-4b8c-b776-9386c9b49273}, !- Handle
  surface Window_ID1,                     !- Name
  Wall,                                   !- Surface Type
  {97f270c6-a32f-4a4a-842e-f51ef4f734f2}, !- Construction Name
  {704de395-d0a8-4eb3-bd07-3b5fe465ab26}, !- Space Name
  Adiabatic,                              !- Outside Boundary Condition
  ,                                       !- Outside Boundary Condition Object
  NoSun,                                  !- Sun Exposure
  NoWind,                                 !- Wind Exposure
  ,                                       !- View Factor to Ground
  ,                                       !- Number of Vertices
  7.31620000000001, -50, 0,               !- X,Y,Z Vertex 1 {m}
  7.31620000000001, -50, 1.526,           !- X,Y,Z Vertex 2 {m}
  -7.31619999999999, -50, 1.526,          !- X,Y,Z Vertex 3 {m}
  -7.31619999999999, -50, 0;              !- X,Y,Z Vertex 4 {m}

OS:SubSurface,
  {01f7c2ed-f8ce-4e37-b528-625849c7ae61}, !- Handle
  Window_ID1,                             !- Name
  FixedWindow,                            !- Sub Surface Type
  {3b92a0b9-f0f2-4af1-95c3-452fb6de64f8}, !- Construction Name
  {994a40a9-c1dc-4b8c-b776-9386c9b49273}, !- Surface Name
  ,                                       !- Outside Boundary Condition Object
  ,                                       !- View Factor to Ground
  {f7386c02-fcf2-4cfd-8332-fa44f16aa803}, !- Shading Control Name
  ,                                       !- Frame and Divider Name
  ,                                       !- Multiplier
  ,                                       !- Number of Vertices
  7.31520000000001, -50, 0.001,           !- X,Y,Z Vertex 1 {m}
  7.31520000000001, -50, 1.525,           !- X,Y,Z Vertex 2 {m}
  -7.31519999999999, -50, 1.525,          !- X,Y,Z Vertex 3 {m}
  -7.31519999999999, -50, 0.001;          !- X,Y,Z Vertex 4 {m}

OS:Surface,
  {9406ce35-d981-4c3e-ac86-5eac111dfde4}, !- Handle
  surface Window_ID2,                     !- Name
  Wall,                                   !- Surface Type
  {97f270c6-a32f-4a4a-842e-f51ef4f734f2}, !- Construction Name
  {704de395-d0a8-4eb3-bd07-3b5fe465ab26}, !- Space Name
  Adiabatic,                              !- Outside Boundary Condition
  ,                                       !- Outside Boundary Condition Object
  NoSun,                                  !- Sun Exposure
  NoWind,                                 !- Wind Exposure
  ,                                       !- View Factor to Ground
  ,                                       !- Number of Vertices
  -3.6586, 52.5, 0,                       !- X,Y,Z Vertex 1 {m}
  -3.6586, 52.5, 1.526,                   !- X,Y,Z Vertex 2 {m}
  3.6586, 52.5, 1.526,                    !- X,Y,Z Vertex 3 {m}
  3.6586, 52.5, 0;                        !- X,Y,Z Vertex 4 {m}

OS:SubSurface,
  {048e9056-a565-41e1-b328-22443cc73d56}, !- Handle
  Window_ID2,                             !- Name
  FixedWindow,                            !- Sub Surface Type
  {88bf5582-15d2-4242-9429-cea84fcebd46}, !- Construction Name