
Version,
  8.7;                                    !- Version Identifier

LifeCycleCost:Parameters,
  {6d64c487-253c-4015-94a4-b92469b7e58f}, !- Name
  EndOfYear,                              !- Discounting Convention
  ConstantDollar,                         !- Inflation Approach
  0.03,                                   !- Real Discount Rate
  ,                                       !- Nominal Discount Rate
  ,                                       !- Inflation
  ,                                       !- Base Date Month
  2011,                                   !- Base Date Year
  ,                                       !- Service Date Month
  2011,                                   !- Service Date Year
  25,                                     !- Length of Study Period in Years
  ,                                       !- Tax rate
  None;                                   !- Depreciation Method

LifeCycleCost:UsePriceEscalation,
  U.S. Avg  Commercial-Electricity,       !- Name
  Electricity,                            !- Resource
  2011,                                   !- Escalation Start Year
  January,                                !- Escalation Start Month
  0.9838,                                 !- Year Escalation 1
  0.9730,                                 !- Year Escalation 2
  0.9632,                                 !- Year Escalation 3
  0.9611,                                 !- Year Escalation 4
  0.9571,                                 !- Year Escalation 5
  0.9553,                                 !- Year Escalation 6
  0.9539,                                 !- Year Escalation 7
  0.9521,                                 !- Year Escalation 8
  0.9546,                                 !- Year Escalation 9
  0.9550,                                 !- Year Escalation 10
  0.9553,                                 !- Year Escalation 11
  0.9564,                                 !- Year Escalation 12
  0.9575,                                 !- Year Escalation 13
  0.9596,                                 !- Year Escalation 14
  0.9618,                                 !- Year Escalation 15
  0.9614,                                 !- Year Escalation 16
  0.9618,                                 !- Year Escalation 17
  0.9618,                                 !- Year Escalation 18
  0.9593,                                 !- Year Escalation 19
  0.9589,                                 !- Year Escalation 20
  0.9607,                                 !- Year Escalation 21
  0.9625,                                 !- Year Escalation 22
  0.9650,                                 !- Year Escalation 23
  0.9708,                                 !- Year Escalation 24
  0.9751,                                 !- Year Escalation 25
  0.9762,                                 !- Year Escalation 26
  0.9766,                                 !- Year Escalation 27
  0.9766,                                 !- Year Escalation 28
  0.9769,                                 !- Year Escalation 29
  0.9773;                                 !- Year Escalation 30

LifeCycleCost:UsePriceEscalation,
  U.S. Avg  Commercial-Distillate Oil,    !- Name
  FuelOil#1,                              !- Resource
  2011,                                   !- Escalation Start Year
  January,                                !- Escalation Start Month
  0.9714,                                 !- Year Escalation 1
  0.9730,                                 !- Year Escalation 2
  0.9942,                                 !- Year Escalation 3
  1.0164,                                 !- Year Escalation 4
  1.0541,                                 !- Year Escalation 5
  1.0928,                                 !- Year Escalation 6
  1.1267,                                 !- Year Escalation 7
  1.1580,                                 !- Year Escalation 8
  1.1792,                                 !- Year Escalation 9
  1.1967,                                 !- Year Escalation 10
  1.2200,                                 !- Year Escalation 11
  1.2333,                                 !- Year Escalation 12
  1.2566,                                 !- Year Escalation 13
  1.2709,                                 !- Year Escalation 14
  1.2826,                                 !- Year Escalation 15
  1.2985,                                 !- Year Escalation 16
  1.3102,                                 !- Year Escalation 17
  1.3250,                                 !- Year Escalation 18
  1.3261,                                 !- Year Escalation 19
  1.3282,                                 !- Year Escalation 20
  1.3324,                                 !- Year Escalation 21
  1.3356,                                 !- Year Escalation 22
  1.3431,                                 !- Year Escalation 23
  1.3510,                                 !- Year Escalation 24
  1.3568,                                 !- Year Escalation 25
  1.3606,                                 !- Year Escalation 26
  1.3637,                                 !- Year Escalation 27
  1.3674,                                 !- Year Escalation 28
  1.3706,                                 !- Year Escalation 29
  1.3743;                                 !- Year Escalation 30

LifeCycleCost:UsePriceEscalation,
  U.S. Avg  Commercial-Residual Oil,      !- Name
  FuelOil#2,                              !- Resource
  2011,                                   !- Escalation Start Year
  January,                                !- Escalation Start Month
  0.8469,                                 !- Year Escalation 1
  0.8257,                                 !- Year Escalation 2
  0.8681,                                 !- Year Escalation 3
  0.8988,                                 !- Year Escalation 4
  0.9289,                                 !- Year Escalation 5
  0.9604,                                 !- Year Escalation 6
  0.9897,                                 !- Year Escalation 7
  1.0075,                                 !- Year Escalation 8
  1.0314,                                 !- Year Escalation 9
  1.0554,                                 !- Year Escalation 10
  1.0861,                                 !- Year Escalation 11
  1.1278,                                 !- Year Escalation 12
  1.1497,                                 !- Year Escalation 13
  1.1620,                                 !- Year Escalation 14
  1.1743,                                 !- Year Escalation 15
  1.1852,                                 !- Year Escalation 16
  1.1948,                                 !- Year Escalation 17
  1.2037,                                 !- Year Escalation 18
  1.2071,                                 !- Year Escalation 19
  1.2119,                                 !- Year Escalation 20
  1.2139,                                 !- Year Escalation 21
  1.2194,                                 !- Year Escalation 22
  1.2276,                                 !- Year Escalation 23
  1.2365,                                 !- Year Escalation 24
  1.2420,                                 !- Year Escalation 25
  1.2461,                                 !- Year Escalation 26
  1.2509,                                 !- Year Escalation 27
  1.2550,                                 !- Year Escalation 28
  1.2591,                                 !- Year Escalation 29
  1.2638;                                 !- Year Escalation 30

LifeCycleCost:UsePriceEscalation,
  U.S. Avg  Commercial-Natural gas,       !- Name
  NaturalGas,                             !- Resource
  2011,                                   !- Escalation Start Year
  January,                                !- Escalation Start Month
  0.9823,                                 !- Year Escalation 1
  0.9557,                                 !- Year Escalation 2
  0.9279,                                 !- Year Escalation 3
  0.9257,                                 !- Year Escalation 4
  0.9346,                                 !- Year Escalation 5
  0.9412,                                 !- Year Escalation 6
  0.9512,                                 !- Year Escalation 7
  0.9645,                                 !- Year Escalation 8
  0.9856,                                 !- Year Escalation 9
  1.0067,                                 !- Year Escalation 10
  1.0222,                                 !- Year Escalation 11
  1.0410,                                 !- Year Escalation 12
  1.0610,                                 !- Year Escalation 13
  1.0787,                                 !- Year Escalation 14
  1.0942,                                 !- Year Escalation 15
  1.1098,                                 !- Year Escalation 16
  1.1220,                                 !- Year Escalation 17
  1.1308,                                 !- Year Escalation 18
  1.1386,                                 !- Year Escalation 19
  1.1486,                                 !- Year Escalation 20
  1.1619,                                 !- Year Escalation 21
  1.1763,                                 !- Year Escalation 22
  1.1918,                                 !- Year Escalation 23
  1.2118,                                 !- Year Escalation 24
  1.2284,                                 !- Year Escalation 25
  1.2439,                                 !- Year Escalation 26
  1.2605,                                 !- Year Escalation 27
  1.2772,                                 !- Year Escalation 28
  1.2938,                                 !- Year Escalation 29
  1.3115;                                 !- Year Escalation 30

LifeCycleCost:UsePriceEscalation,
  U.S. Avg  Commercial-Coal,              !- Name
  Coal,                                   !- Resource
  2011,                                   !- Escalation Start Year
  January,                                !- Escalation Start Month
  0.9970,                                 !- Year Escalation 1
  1.0089,                                 !- Year Escalation 2
  1.0089,                                 !- Year Escalation 3
  0.9941,                                 !- Year Escalation 4
  0.9941,                                 !- Year Escalation 5
  1.0000,                                 !- Year Escalation 6
  1.0030,                                 !- Year Escalation 7
  1.0059,                                 !- Year Escalation 8
  1.0089,                                 !- Year Escalation 9
  1.0119,                                 !- Year Escalation 10
  1.0148,                                 !- Year Escalation 11
  1.0178,                                 !- Year Escalation 12
  1.0208,                                 !- Year Escalation 13
  1.0267,                                 !- Year Escalation 14
  1.0297,                                 !- Year Escalation 15
  1.0356,                                 !- Year Escalation 16
  1.0415,                                 !- Year Escalation 17
  1.0534,                                 !- Year Escalation 18
  1.0564,                                 !- Year Escalation 19
  1.0593,                                 !- Year Escalation 20
  1.0653,                                 !- Year Escalation 21
  1.0712,                                 !- Year Escalation 22
  1.0742,                                 !- Year Escalation 23
  1.0801,                                 !- Year Escalation 24
  1.0831,                                 !- Year Escalation 25
  1.0831,                                 !- Year Escalation 26
  1.0861,                                 !- Year Escalation 27
  1.0890,                                 !- Year Escalation 28
  1.0920,                                 !- Year Escalation 29
  1.0950;                                 !- Year Escalation 30

Building,
  FIXME,                                  !- Name
  ,                                       !- North Axis {deg}
  Suburbs,                                !- Terrain
  ,                                       !- Loads Convergence Tolerance Value
  ,                                       !- Temperature Convergence Tolerance Value {deltaC}
  ,                                       !- Solar Distribution
  ,                                       !- Maximum Number of Warmup Days
  ;                                       !- Minimum Number of Warmup Days

Zone,
  finished basement zone,                 !- Name
  ,                                       !- Direction of Relative North {deg}
  ,                                       !- X Origin {m}
  ,                                       !- Y Origin {m}
  ,                                       !- Z Origin {m}
  ,                                       !- Type
  ,                                       !- Multiplier
  ,                                       !- Ceiling Height {m}
  693.762741504,                          !- Volume {m3}
  ,                                       !- Floor Area {m2}
  ,                                       !- Zone Inside Convection Algorithm
  ;                                       !- Zone Outside Convection Algorithm

BuildingSurface:Detailed,
  Floor_ID1,                              !- Name
  Ceiling,                                !- Surface Type
  RevConstruction 3,                      !- Construction Name
  finished basement zone,                 !- Zone Name
  Surface,                                !- Outside Boundary Condition
  Floor_ID1 Reversed,                     !- Outside Boundary Condition Object
  NoSun,                                  !- Sun Exposure
  NoWind,                                 !- Wind Exposure
  ,                                       !- View Factor to Ground
  ,                                       !- Number of Vertices
  9.01610558944381, -9.01610558944382, 5.5, !- X,Y,Z Vertex 1 {m}
  9.01610558944381, 9.01610558944382, 5.5, !- X,Y,Z Vertex 2 {m}
  -9.01610558944381, 9.01610558944382, 5.5, !- X,Y,Z Vertex 3 {m}
  -9.01610558944381, -9.01610558944382, 5.5; !- X,Y,Z Vertex 4 {m}

BuildingSurface:Detailed,
  fndslab-1,                              !- Name
  Floor,                                  !- Surface Type
  GrndUninsFinBFloor,                     !- Construction Name
  finished basement zone,                 !- Zone Name
  Ground,                                 !- Outside Boundary Condition
  ,                                       !- Outside Boundary Condition Object
  NoSun,                                  !- Sun Exposure
  NoWind,                                 !- Wind Exposure
  ,                                       !- View Factor to Ground
  ,                                       !- Number of Vertices
  -9.01610558944381, -9.01610558944382, -2.1336, !- X,Y,Z Vertex 1 {m}
  -9.01610558944381, 9.01610558944382, -2.1336, !- X,Y,Z Vertex 2 {m}
  9.01610558944381, 9.01610558944382, -2.1336, !- X,Y,Z Vertex 3 {m}
  9.01610558944381, -9.01610558944382, -2.1336; !- X,Y,Z Vertex 4 {m}

BuildingSurface:Detailed,
  fndwall-1,                              !- Name
  Wall,                                   !- Surface Type
  GrndInsFinWall,                         !- Construction Name
  finished basement zone,                 !- Zone Name
  Ground,                                 !- Outside Boundary Condition
  ,                                       !- Outside Boundary Condition Object
  NoSun,                                  !- Sun Exposure
  NoWind,                                 !- Wind Exposure
  ,                                       !- View Factor to Ground
  ,                                       !- Number of Vertices
  -36.576, 10, -2.1336,                   !- X,Y,Z Vertex 1 {m}
  -36.576, 10, 0.6096,                    !- X,Y,Z Vertex 2 {m}
  36.576, 10, 0.6096,                     !- X,Y,Z Vertex 3 {m}
  36.576, 10, -2.1336;                    !- X,Y,Z Vertex 4 {m}

InternalMass,
  finished basement space Partition,      !- Name
  FinUninsFinWall,                        !- Construction Name
  finished basement zone,                 !- Zone Name
  261.893489240603;                       !- Surface Area {m2}

InternalMass,
  residential furniture mass finished basement space, !- Name
  residential furniture construction finished basement space, !- Construction Name
  finished basement zone,                 !- Zone Name
  130.064256;                             !- Surface Area {m2}

People,
  residential occupants|finished basement space, !- Name
  finished basement zone,                 !- Zone or ZoneList Name
  residential occupants schedule,         !- Number of People Schedule Name
  People,                                 !- Number of People Calculation Method
  2,                                      !- Number of People
  ,                                       !- People per Zone Floor Area {person/m2}
  ,                                       !- Zone Floor Area per Person {m2/person}
  0,                                      !- Fraction Radiant
  0,                                      !- Sensible Heat Fraction
  Schedule Ruleset 1,                     !- Activity Level Schedule Name
  0,                                      !- Carbon Dioxide Generation Rate {m3/s-W}
  No,                                     !- Enable ASHRAE 55 Comfort Warnings
  ZoneAveraged;                           !- Mean Radiant Temperature Calculation Type

ElectricEquipment,
  residential ceiling fan benchmark|finished basement space, !- Name
  finished basement zone,                 !- Zone or ZoneList Name
  residential ceiling fan benchmark|finished basement space schedule, !- Schedule Name
  EquipmentLevel,                         !- Design Level Calculation Method
  43.8913128995348,                       !- Design Level {W}
  ,                                       !- Watts per Zone Floor Area {W/m2}
  ,                                       !- Watts per Person {W/person}
  0,                                      !- Fraction Latent
  0.558,                                  !- Fraction Radiant
  0.07,                                   !- Fraction Lost
  residential ceiling fan;                !- End-Use Subcategory

ElectricEquipment,
  residential misc plug loads|finished basement space, !- Name
  finished basement zone,                 !- Zone or ZoneList Name
  residential misc plug loads schedule,   !- Schedule Name
  EquipmentLevel,                         !- Design Level Calculation Method
  862.072280906556,                       !- Design Level {W}
  ,                                       !- Watts per Zone Floor Area {W/m2}
  ,                                       !- Watts per Person {W/person}
  0.0448248053057933,                     !- Fraction Latent
  0.573105116816524,                      !- Fraction Radiant
  3.46944695195361e-017,                  !- Fraction Lost
  residential misc plug loads;            !- End-Use Subcategory

OtherEquipment,
  res_ds_u_1_ret_d_cn_to_ah equip,        !- Name
  None,                                   !- Fuel Type
  finished basement zone,                 !- Zone or ZoneList Name
  Always On Discrete,                     !- Schedule Name
  EquipmentLevel,                         !- Design Level Calculation Method
  0,                                      !- Design Level {W}
  ,                                       !- Power per Zone Floor Area {W/m2}
  ,                                       !- Power per Person {W/Person}
  ,                                       !- Fraction Latent
  ,                                       !- Fraction Radiant
  ;                                       !- Fraction Lost

OtherEquipment,
  res_ds_u_1_sup_d_cn_to_ah equip,        !- Name
  None,                                   !- Fuel Type
  finished basement zone,                 !- Zone or ZoneList Name
  Always On Discrete,                     !- Schedule Name
  EquipmentLevel,                         !- Design Level Calculation Method
  0,                                      !- Design Level {W}
  ,                                       !- Power per Zone Floor Area {W/m2}
  ,                                       !- Power per Person {W/Person}
  ,                                       !- Fraction Latent
  ,                                       !- Fraction Radiant
  ;                                       !- Fraction Lost

OtherEquipment,
  res_ds_u_1_sup_lat_lk_to_ah equip,      !- Name
  None,                                   !- Fuel Type
  finished basement zone,                 !- Zone or ZoneList Name
  Always On Discrete,                     !- Schedule Name
  EquipmentLevel,                         !- Design Level Calculation Method
  0,                                      !- Design Level {W}
  ,                                       !- Power per Zone Floor Area {W/m2}
  ,                                       !- Power per Person {W/Person}
  ,                                       !- Fraction Latent
  ,                                       !- Fraction Radiant
  ;                                       !- Fraction Lost

OtherEquipment,
  res_ds_u_1_sup_s_lk_to_ah equip,        !- Name
  None,                                   !- Fuel Type
  finished basement zone,                 !- Zone or ZoneList Name
  Always On Discrete,                     !- Schedule Name
  EquipmentLevel,                         !- Design Level Calculation Method
  0,                                      !- Design Level {W}
  ,                                       !- Power per Zone Floor Area {W/m2}
  ,                                       !- Power per Person {W/Person}
  ,                                       !- Fraction Latent
  ,                                       !- Fraction Radiant
  ;                                       !- Fraction Lost

ZoneMixing,
  res_ds_u_1_liv_to_ah mix,               !- Name
  finished basement zone,                 !- Zone Name
  Always On Continuous,                   !- Schedule Name
  Flow/Zone,                              !- Design Flow Rate Calculation Method
  0,                                      !- Design Flow Rate {m3/s}
  ,                                       !- Flow Rate per Zone Floor Area {m3/s-m2}
  ,                                       !- Flow Rate per Person {m3/s-person}
  ,                                       !- Air Changes per Hour {1/hr}
  living zone;                            !- Source Zone Name

Schedule:Constant,
  Always On Continuous,                   !- Name
  Fractional 1,                           !- Schedule Type Limits Name
  1;                                      !- Hourly Value

ZoneControl:Thermostat,
  finished basement zone Thermostat,      !- Name
  finished basement zone,                 !- Zone or ZoneList Name
  finished basement zone Thermostat Schedule, !- Control Type Schedule Name
  ThermostatSetpoint:DualSetpoint,        !- Control Object Type 1
  finished basement zone temperature setpoint; !- Control Name 1

Schedule:Compact,
  finished basement zone Thermostat Schedule, !- Name
  finished basement zone Thermostat Schedule Type Limits, !- Schedule Type Limits Name
  Through: 12/31,                         !- Field 1
  For: AllDays,                           !- Field 2
  Until: 24:00,                           !- Field 3
  4;                                      !- Field 4

ScheduleTypeLimits,
  finished basement zone Thermostat Schedule Type Limits, !- Name
  0,                                      !- Lower Limit Value {BasedOnField A3}
  4,                                      !- Upper Limit Value {BasedOnField A3}
  DISCRETE;                               !- Numeric Type

ThermostatSetpoint:DualSetpoint,
  finished basement zone temperature setpoint, !- Name
  residential heating setpoint,           !- Heating Setpoint Temperature Schedule Name
  residential cooling setpoint;           !- Cooling Setpoint Temperature Schedule Name

ScheduleTypeLimits,
  Temperature,                            !- Name
  ,                                       !- Lower Limit Value {BasedOnField A3}
  ,                                       !- Upper Limit Value {BasedOnField A3}
  Continuous,                             !- Numeric Type
  temperature;                            !- Unit Type

Schedule:Day:Interval,
  residential heating setpoint allday1,   !- Name
  Temperature,                            !- Schedule Type Limits Name
  No,                                     !- Interpolate to Timestep
  01:00,                                  !- Time 1 {hh:mm}
  20.0000000000001,                       !- Value Until Time 1
  02:00,                                  !- Time 2 {hh:mm}
  20.0000000000001,                       !- Value Until Time 2
  03:00,                                  !- Time 3 {hh:mm}
  20.0000000000001,                       !- Value Until Time 3
  04:00,                                  !- Time 4 {hh:mm}
  20.0000000000001,                       !- Value Until Time 4
  05:00,                                  !- Time 5 {hh:mm}
  20.0000000000001,                       !- Value Until Time 5
  06:00,                                  !- Time 6 {hh:mm}
  20.0000000000001,                       !- Value Until Time 6
  07:00,                                  !- Time 7 {hh:mm}
  20.0000000000001,                       !- Value Until Time 7
  08:00,                                  !- Time 8 {hh:mm}
  20.0000000000001,                       !- Value Until Time 8
  09:00,                                  !- Time 9 {hh:mm}
  20.0000000000001,                       !- Value Until Time 9
  10:00,                                  !- Time 10 {hh:mm}
  20.0000000000001,                       !- Value Until Time 10
  11:00,                                  !- Time 11 {hh:mm}
  20.0000000000001,                       !- Value Until Time 11
  12:00,                                  !- Time 12 {hh:mm}
  20.0000000000001,                       !- Value Until Time 12
  13:00,                                  !- Time 13 {hh:mm}
  20.0000000000001,                       !- Value Until Time 13
  14:00,                                  !- Time 14 {hh:mm}
  20.0000000000001,                       !- Value Until Time 14
  15:00,                                  !- Time 15 {hh:mm}
  20.0000000000001,                       !- Value Until Time 15
  16:00,                                  !- Time 16 {hh:mm}
  20.0000000000001,                       !- Value Until Time 16
  17:00,                                  !- Time 17 {hh:mm}
  20.0000000000001,                       !- Value Until Time 17
  18:00,                                  !- Time 18 {hh:mm}
  20.0000000000001,                       !- Value Until Time 18
  19:00,                                  !- Time 19 {hh:mm}
  20.0000000000001,                       !- Value Until Time 19
  20:00,                                  !- Time 20 {hh:mm}
  20.0000000000001,                       !- Value Until Time 20
  21:00,                                  !- Time 21 {hh:mm}
  20.0000000000001,                       !- Value Until Time 21
  22:00,                                  !- Time 22 {hh:mm}
  20.0000000000001,                       !- Value Until Time 22
  23:00,                                  !- Time 23 {hh:mm}
  20.0000000000001,                       !- Value Until Time 23
  24:00,                                  !- Time 24 {hh:mm}
  20.0000000000001;                       !- Value Until Time 24

Schedule:Week:Daily,
  Schedule:Week:Daily {653f659a-22ab-4782-bb75-15cd092afe16}, !- Name
  Schedule Day 8,                         !- Sunday Schedule:Day Name
  Schedule Day 8,                         !- Monday Schedule:Day Name
  Schedule Day 8,                         !- Tuesday Schedule:Day Name
  Schedule Day 8,                         !- Wednesday Schedule:Day Name
  residential heating setpoint allday1,   !- Thursday Schedule:Day Name
  residential heating setpoint allday1,   !- Friday Schedule:Day Name
  residential heating setpoint allday1,   !- Saturday Schedule:Day Name
  Schedule Day 8,                         !- Holiday Schedule:Day Name
  Schedule Day 8,                         !- SummerDesignDay Schedule:Day Name
  Schedule Day 8,                         !- WinterDesignDay Schedule:Day Name
  Schedule Day 8,                         !- CustomDay1 Schedule:Day Name
  Schedule Day 8;                         !- CustomDay2 Schedule:Day Name

Schedule:Day:Interval,
  residential heating setpoint allday2,   !- Name
  Temperature,                            !- Schedule Type Limits Name
  No,                                     !- Interpolate to Timestep
  01:00,                                  !- Time 1 {hh:mm}
  20.0000000000001,                       !- Value Until Time 1
  02:00,                                  !- Time 2 {hh:mm}
  20.0000000000001,                       !- Value Until Time 2
  03:00,                                  !- Time 3 {hh:mm}
  20.0000000000001,                       !- Value Until Time 3
  04:00,                                  !- Time 4 {hh:mm}
  20.0000000000001,                       !- Value Until Time 4
  05:00,                                  !- Time 5 {hh:mm}
  20.0000000000001,                       !- Value Until Time 5
  06:00,                                  !- Time 6 {hh:mm}
  20.0000000000001,                       !- Value Until Time 6
  07:00,                                  !- Time 7 {hh:mm}
  20.0000000000001,                       !- Value Until Time 7
  08:00,                                  !- Time 8 {hh:mm}
  20.0000000000001,                       !- Value Until Time 8
  09:00,                                  !- Time 9 {hh:mm}
  20.0000000000001,                       !- Value Until Time 9
  10:00,                                  !- Time 10 {hh:mm}
  20.0000000000001,                       !- Value Until Time 10
  11:00,                                  !- Time 11 {hh:mm}