
OS:Version,
  {4822d365-db69-4ca3-bed8-435f6835ad16}, !- Handle
  1.3.1;                                  !- Version Identifier

OS:Construction,
  {394a3a62-ddf2-4a6e-a1fb-427f0ac77c34}, !- Handle
  UnfinUninsExtGrgRoof,                   !- Name
  ,                                       !- Surface Rendering Name
  {39f559b7-0bd1-46a4-b91b-30d6884fc4ba}, !- Layer 1
  {8b64424e-180d-4335-bf33-0dd09d4d49aa}, !- Layer 2
  {0a60c687-0006-4072-89fc-dd8ab8fb7c9f}; !- Layer 3

OS:Material,
  {39f559b7-0bd1-46a4-b91b-30d6884fc4ba}, !- Handle
  Roofing_Material_Asphalt_Shingles_Medium, !- Name
  Rough,                                  !- Roughness
  0.0094488,                              !- Thickness {m}
  0.162714,                               !- Conductivity {W/m-K}
  1121.39999999999,                       !- Density {kg/m3}
  1465.44999999999,                       !- Specific Heat {J/kg-K}
  0.91,                                   !- Thermal Absorptance
  0.85,                                   !- Solar Absorptance
  0.85;                                   !- Visible Absorptance

OS:Material,
  {8b64424e-180d-4335-bf33-0dd09d4d49aa}, !- Handle
  Plywood_3_4in,                          !- Name
  Rough,                                  !- Roughness
  0.01905,                                !- Thickness {m}
  0.1154577,                              !- Conductivity {W/m-K}
  512.64,                                 !- Density {kg/m3}
  1214.23;                                !- Specific Heat {J/kg-K}

OS:Material,
  {0a60c687-0006-4072-89fc-dd8ab8fb7c9f}, !- Handle
  GrgRoofStudandAir,                      !- Name
  Rough,                                  !- Roughness
  0.0889,                                 !- Thickness {m}
  3.2214781383103,                        !- Conductivity {W/m-K}
  57.4503560478975,                       !- Density {kg/m3}
  1210.36750350924;                       !- Specific Heat {J/kg-K}

