
OS:Version,
  {c84ba83d-b650-4cf3-969a-21a600477486}, !- Handle
  1.3.1;                                  !- Version Identifier

OS:Construction,
  {90e96d8f-e648-4235-a531-2eb8477a5a57}, !- Handle
  Double-Pane High-Gain Low-E Non-metal Frame Argon Fill, !- Name
  ,                                       !- Surface Rendering Name
  {4f251d5d-861d-4b3b-a903-6f630d30fe3e}; !- Layer 1

OS:WindowMaterial:SimpleGlazingSystem,
  {4f251d5d-861d-4b3b-a903-6f630d30fe3e}, !- Handle
  Double-Pane Glass,                      !- Name
  2.09528552369434,                       !- U-Factor {W/m2-K}
  0.531991810614961;                      !- Solar Heat Gain Coefficient

OS:StandardsInformation:Construction,
  {520fa5fb-9fda-4f97-8bc2-37c22efd5f8d}, !- Handle
  {90e96d8f-e648-4235-a531-2eb8477a5a57}, !- Construction Name
  ExteriorWindow;                         !- Intended Surface Type

OS:ComponentData,
  {e2222bea-0bb0-42d5-a379-479bb6f7ed8c}, !- Handle
  Component Data 1,                       !- Name
  {e024f93b-61b7-4782-8f21-cb8e92916b0e}, !- UUID
  {232b4d6c-04a9-4887-9613-c2b6c7f22871}, !- Version UUID
  1406055300,                             !- Creation Timestamp
  1406055300,                             !- Version Timestamp
  {90e96d8f-e648-4235-a531-2eb8477a5a57}, !- Name of Object 1
  {4f251d5d-861d-4b3b-a903-6f630d30fe3e}, !- Name of Object 2
  {520fa5fb-9fda-4f97-8bc2-37c22efd5f8d}; !- Name of Object 3

