
OS:Version,
  {6c88967b-09b3-4f2f-883b-ff6bedc11740}, !- Handle
  1.3.1;                                  !- Version Identifier

OS:WindowMaterial:SimpleGlazingSystem,
  {dec3f6cd-8c7a-4164-97f3-aea58b120cde}, !- Handle
  Double-Pane Glass,                      !- Name
  2.09528552369434,                       !- U-Factor {W/m2-K}
  0.531991810614961;                      !- Solar Heat Gain Coefficient

OS:Construction,
  {ab0c1f90-ed50-4fe2-aada-765b480a3895}, !- Handle
  Double-Pane High-Gain Low-E Non-metal Frame Argon Fill, !- Name
  ,                                       !- Surface Rendering Name
  {dec3f6cd-8c7a-4164-97f3-aea58b120cde}; !- Layer 1

OS:StandardsInformation:Construction,
  {4f38df94-eb14-4a34-ad6d-7d26839a0daa}, !- Handle
  {ab0c1f90-ed50-4fe2-aada-765b480a3895}, !- Construction Name
  ExteriorWindow;                         !- Intended Surface Type

