
OS:Version,
  {43582967-4252-486b-912e-60d3cc54f703}, !- Handle
  1.3.1;                                  !- Version Identifier

OS:Construction,
  {6328f3b8-3e46-4d1c-900e-0b6f24aa6318}, !- Handle
  Slab,                                   !- Name
  ,                                       !- Surface Rendering Name
  {2b117afa-f703-4983-9956-89360bab1066}, !- Layer 1
  {d0bc389b-636d-4598-9d62-26dde14dfb09}, !- Layer 2
  {b466c557-f200-4d65-886f-d3997036ae0d}, !- Layer 3
  {a3bbb5c7-b124-4330-844f-d5ae28161c2a}; !- Layer 4

OS:Material,
  {d0bc389b-636d-4598-9d62-26dde14dfb09}, !- Handle
  Soil_12in,                              !- Name
  Rough,                                  !- Roughness
  0.3048,                                 !- Thickness {m}
  1.731,                                  !- Conductivity {W/m-K}
  1842.3,                                 !- Density {kg/m3}
  418.7;                                  !- Specific Heat {J/kg-K}

OS:Material,
  {b466c557-f200-4d65-886f-d3997036ae0d}, !- Handle
  SlabMass,                               !- Name
  Rough,                                  !- Roughness
  0.1016,                                 !- Thickness {m}
  1.312675,                               !- Conductivity {W/m-K}
  2242.79999999999,                       !- Density {kg/m3}
  837.4;                                  !- Specific Heat {J/kg-K}

OS:Material,
  {a3bbb5c7-b124-4330-844f-d5ae28161c2a}, !- Handle
  SlabCarpetBareEquivalentMaterial,       !- Name
  Rough,                                  !- Roughness
  0.0254,                                 !- Thickness {m}
  0.0866804263311929,                     !- Conductivity {W/m-K}
  40.05,                                  !- Density {kg/m3}
  1214.23;                                !- Specific Heat {J/kg-K}

OS:Material,
  {2b117afa-f703-4983-9956-89360bab1066}, !- Handle
  Mat-Fic-Slab,                           !- Name
  Rough,                                  !- Roughness
  0.0254,                                 !- Thickness {m}
  0.0124019650692846,                     !- Conductivity {W/m-K}
  40.05,                                  !- Density {kg/m3}
  1214.23;                                !- Specific Heat {J/kg-K}

