
OS:Version,
  {7b87f41d-416b-4733-b980-9dc468ed8533}, !- Handle
  1.3.1;                                  !- Version Identifier

OS:ElectricEquipment:Definition,
  {60f18512-8349-4cb7-9dff-24f1960a8a3d}, !- Handle
  21 cu ft. EF = 15.9 bottom freezer,     !- Name
  EquipmentLevel,                         !- Design Level Calculation Method
  85.9353893176417,                       !- Design Level {W}
  ,                                       !- Watts per Space Floor Area {W/m2}
  ,                                       !- Watts per Person {W/person}
  0,                                      !- Fraction Latent
  0,                                      !- Fraction Radiant
  0;                                      !- Fraction Lost

OS:Schedule:Ruleset,
  {54fef731-b9bd-4afd-b015-6594a5e4fc30}, !- Handle
  refrigerator_ruleset,                   !- Name
  ,                                       !- Schedule Type Limits Name
  {a9eba1fb-12b0-46dd-8f35-a1a8bcb72fa4}, !- Default Day Schedule Name
  {dab382a4-9f27-402f-b47e-92c6fe90e053}, !- Summer Design Day Schedule Name
  {e521fde1-c152-4485-ae0a-81ec9152ef4b}; !- Winter Design Day Schedule Name

OS:Schedule:Day,
  {a9eba1fb-12b0-46dd-8f35-a1a8bcb72fa4}, !- Handle
  Schedule Day 1,                         !- Name
  ,                                       !- Schedule Type Limits Name
  ,                                       !- Interpolate to Timestep
  24,                                     !- Hour 1
  0,                                      !- Minute 1
  0;                                      !- Value Until Time 1

OS:Schedule:Rule,
  {f9405859-cb83-42b7-b899-cdff255bd394}, !- Handle
  fridge_weekday_ruleset1,                !- Name
  {54fef731-b9bd-4afd-b015-6594a5e4fc30}, !- Schedule Ruleset Name
  23,                                     !- Rule Order
  {52a3ea47-0e02-488f-ba69-d7aec01f13ba}, !- Day Schedule Name
  No,                                     !- Apply Sunday
  Yes,                                    !- Apply Monday
  Yes,                                    !- Apply Tuesday
  Yes,                                    !- Apply Wednesday
  Yes,                                    !- Apply Thursday
  Yes,                                    !- Apply Friday
  No,                                     !- Apply Saturday
  ,                                       !- Apply Holiday
  DateRange,                              !- Date Specification Type
  1,                                      !- Start Month
  1,                                      !- Start Day
  1,                                      !- End Month
  31;                                     !- End Day

OS:Schedule:Day,
  {52a3ea47-0e02-488f-ba69-d7aec01f13ba}, !- Handle
  RefrigeratorWinter,                     !- Name
  ,                                       !- Schedule Type Limits Name
  ,                                       !- Interpolate to Timestep
  1,                                      !- Hour 1
  0,                                      !- Minute 1
  0.610948905109489,                      !- Value Until Time 1
  2,                                      !- Hour 2
  0,                                      !- Minute 2
  0.595675182481752,                      !- Value Until Time 2
  3,                                      !- Hour 3
  0,                                      !- Minute 3
  0.580401459854014,                      !- Value Until Time 3
  4,                                      !- Hour 4
  0,                                      !- Minute 4
  0.565127737226277,                      !- Value Until Time 4
  5,                                      !- Hour 5
  0,                                      !- Minute 5
  0.54985401459854,                       !- Value Until Time 5
  6,                                      !- Hour 6
  0,                                      !- Minute 6
  0.54985401459854,                       !- Value Until Time 6
  7,                                      !- Hour 7
  0,                                      !- Minute 7
  0.580401459854014,                      !- Value Until Time 7
  8,                                      !- Hour 8
  0,                                      !- Minute 8
  0.610948905109489,                      !- Value Until Time 8
  9,                                      !- Hour 9
  0,                                      !- Minute 9
  0.626222627737226,                      !- Value Until Time 9
  10,                                     !- Hour 10
  0,                                      !- Minute 10
  0.626222627737226,                      !- Value Until Time 10
  11,                                     !- Hour 11
  0,                                      !- Minute 11
  0.610948905109489,                      !- Value Until Time 11
  12,                                     !- Hour 12
  0,                                      !- Minute 12
  0.610948905109489,                      !- Value Until Time 12
  13,                                     !- Hour 13
  0,                                      !- Minute 13
  0.641496350364963,                      !- Value Until Time 13
  14,                                     !- Hour 14
  0,                                      !- Minute 14
  0.641496350364963,                      !- Value Until Time 14
  15,                                     !- Hour 15
  0,                                      !- Minute 15
  0.641496350364963,                      !- Value Until Time 15
  16,                                     !- Hour 16
  0,                                      !- Minute 16
  0.626222627737226,                      !- Value Until Time 16
  17,                                     !- Hour 17
  0,                                      !- Minute 17
  0.672043795620438,                      !- Value Until Time 17
  18,                                     !- Hour 18
  0,                                      !- Minute 18
  0.733138686131387,                      !- Value Until Time 18
  19,                                     !- Hour 19
  0,                                      !- Minute 19
  0.763686131386861,                      !- Value Until Time 19
  20,                                     !- Hour 20
  0,                                      !- Minute 20
  0.733138686131387,                      !- Value Until Time 20
  21,                                     !- Hour 21
  0,                                      !- Minute 21
  0.717864963503649,                      !- Value Until Time 21
  22,                                     !- Hour 22
  0,                                      !- Minute 22
  0.702591240875912,                      !- Value Until Time 22
  23,                                     !- Hour 23
  0,                                      !- Minute 23
  0.672043795620438,                      !- Value Until Time 23
  24,                                     !- Hour 24
  0,                                      !- Minute 24
  0.626222627737226;                      !- Value Until Time 24

OS:Schedule:Rule,
  {4f45f11e-15d1-4d0e-8d13-4ff6010b43e4}, !- Handle
  fridge_weekend_ruleset1,                !- Name
  {54fef731-b9bd-4afd-b015-6594a5e4fc30}, !- Schedule Ruleset Name
  22,                                     !- Rule Order
  {25cc708d-caf9-4ed5-992a-609915531cd4}, !- Day Schedule Name
  Yes,                                    !- Apply Sunday
  No,                                     !- Apply Monday
  No,                                     !- Apply Tuesday
  No,                                     !- Apply Wednesday
  No,                                     !- Apply Thursday
  No,                                     !- Apply Friday
  Yes,                                    !- Apply Saturday
  ,                                       !- Apply Holiday
  DateRange,                              !- Date Specification Type
  1,                                      !- Start Month
  1,                                      !- Start Day
  1,                                      !- End Month
  31;                                     !- End Day

OS:Schedule:Day,
  {25cc708d-caf9-4ed5-992a-609915531cd4}, !- Handle
  RefrigeratorWeekend1,                   !- Name
  ,                                       !- Schedule Type Limits Name
  ,                                       !- Interpolate to Timestep
  1,                                      !- Hour 1
  0,                                      !- Minute 1
  0.610948905109489,                      !- Value Until Time 1
  2,                                      !- Hour 2
  0,                                      !- Minute 2
  0.595675182481752,                      !- Value Until Time 2
  3,                                      !- Hour 3
  0,                                      !- Minute 3
  0.580401459854014,                      !- Value Until Time 3
  4,                                      !- Hour 4
  0,                                      !- Minute 4
  0.565127737226277,                      !- Value Until Time 4
  5,                                      !- Hour 5
  0,                                      !- Minute 5
  0.54985401459854,                       !- Value Until Time 5
  6,                                      !- Hour 6
  0,                                      !- Minute 6
  0.54985401459854,                       !- Value Until Time 6
  7,                                      !- Hour 7
  0,                                      !- Minute 7
  0.580401459854014,                      !- Value Until Time 7
  8,                                      !- Hour 8
  0,                                      !- Minute 8
  0.610948905109489,                      !- Value Until Time 8
  9,                                      !- Hour 9
  0,                                      !- Minute 9
  0.626222627737226,                      !- Value Until Time 9
  10,                                     !- Hour 10
  0,                                      !- Minute 10
  0.626222627737226,                      !- Value Until Time 10
  11,                                     !- Hour 11
  0,                                      !- Minute 11
  0.610948905109489,                      !- Value Until Time 11
  12,                                     !- Hour 12
  0,                                      !- Minute 12
  0.610948905109489,                      !- Value Until Time 12
  13,                                     !- Hour 13
  0,                                      !- Minute 13
  0.641496350364963,                      !- Value Until Time 13
  14,                                     !- Hour 14
  0,                                      !- Minute 14
  0.641496350364963,                      !- Value Until Time 14
  15,                                     !- Hour 15
  0,                                      !- Minute 15
  0.641496350364963,                      !- Value Until Time 15
  16,                                     !- Hour 16
  0,                                      !- Minute 16
  0.626222627737226,                      !- Value Until Time 16
  17,                                     !- Hour 17
  0,                                      !- Minute 17
  0.672043795620438,                      !- Value Until Time 17
  18,                                     !- Hour 18
  0,                                      !- Minute 18
  0.733138686131387,                      !- Value Until Time 18
  19,                                     !- Hour 19
  0,                                      !- Minute 19
  0.763686131386861,                      !- Value Until Time 19
  20,                                     !- Hour 20
  0,                                      !- Minute 20
  0.733138686131387,                      !- Value Until Time 20
  21,                                     !- Hour 21
  0,                                      !- Minute 21
  0.717864963503649,                      !- Value Until Time 21
  22,                                     !- Hour 22
  0,                                      !- Minute 22
  0.702591240875912,                      !- Value Until Time 22
  23,                                     !- Hour 23
  0,                                      !- Minute 23
  0.672043795620438,                      !- Value Until Time 23
  24,                                     !- Hour 24
  0,                                      !- Minute 24
  0.626222627737226;                      !- Value Until Time 24

OS:Schedule:Rule,
  {69f234ee-2ae7-4e3b-958c-ecd689964971}, !- Handle
  fridge_weekday_ruleset2,                !- Name
  {54fef731-b9bd-4afd-b015-6594a5e4fc30}, !- Schedule Ruleset Name
  21,                                     !- Rule Order
  {fb99c703-faa5-457b-9779-43d1d53a24ad}, !- Day Schedule Name
  No,                                     !- Apply Sunday
  Yes,                                    !- Apply Monday
  Yes,                                    !- Apply Tuesday
  Yes,                                    !- Apply Wednesday
  Yes,                                    !- Apply Thursday
  Yes,                                    !- Apply Friday
  No,                                     !- Apply Saturday
  ,                                       !- Apply Holiday
  DateRange,                              !- Date Specification Type
  2,                                      !- Start Month
  1,                                      !- Start Day
  2,                                      !- End Month
  28;                                     !- End Day

OS:Schedule:Day,
  {fb99c703-faa5-457b-9779-43d1d53a24ad}, !- Handle
  RefrigeratorWeekday2,                   !- Name
  ,                                       !- Schedule Type Limits Name
  ,                                       !- Interpolate to Timestep
  1,                                      !- Hour 1
  0,                                      !- Minute 1
  0.60948905109489,                       !- Value Until Time 1
  2,                                      !- Hour 2
  0,                                      !- Minute 2
  0.594251824817518,                      !- Value Until Time 2
  3,                                      !- Hour 3
  0,                                      !- Minute 3
  0.579014598540146,                      !- Value Until Time 3
  4,                                      !- Hour 4
  0,                                      !- Minute 4
  0.563777372262774,                      !- Value Until Time 4
  5,                                      !- Hour 5
  0,                                      !- Minute 5
  0.548540145985401,                      !- Value Until Time 5
  6,                                      !- Hour 6
  0,                                      !- Minute 6
  0.548540145985401,                      !- Value Until Time 6
  7,                                      !- Hour 7
  0,                                      !- Minute 7
  0.579014598540146,                      !- Value Until Time 7
  8,                                      !- Hour 8
  0,                                      !- Minute 8
  0.60948905109489,                       !- Value Until Time 8
  9,                                      !- Hour 9
  0,                                      !- Minute 9
  0.624726277372263,                      !- Value Until Time 9
  10,                                     !- Hour 10
  0,                                      !- Minute 10
  0.624726277372263,                      !- Value Until Time 10
  11,                                     !- Hour 11
  0,                                      !- Minute 11
  0.60948905109489,                       !- Value Until Time 11
  12,                                     !- Hour 12
  0,                                      !- Minute 12
  0.60948905109489,                       !- Value Until Time 12
  13,                                     !- Hour 13
  0,                                      !- Minute 13
  0.639963503649635,                      !- Value Until Time 13
  14,                                     !- Hour 14
  0,                                      !- Minute 14
  0.639963503649635,                      !- Value Until Time 14
  15,                                     !- Hour 15
  0,                                      !- Minute 15
  0.639963503649635,                      !- Value Until Time 15
  16,                                     !- Hour 16
  0,                                      !- Minute 16
  0.624726277372263,                      !- Value Until Time 16
  17,                                     !- Hour 17
  0,                                      !- Minute 17
  0.670437956204379,                      !- Value Until Time 17
  18,                                     !- Hour 18
  0,                                      !- Minute 18
  0.731386861313868,                      !- Value Until Time 18
  19,                                     !- Hour 19
  0,                                      !- Minute 19
  0.761861313868613,                      !- Value Until Time 19
  20,                                     !- Hour 20
  0,                                      !- Minute 20
  0.731386861313868,                      !- Value Until Time 20
  21,                                     !- Hour 21
  0,                                      !- Minute 21
  0.716149635036496,                      !- Value Until Time 21
  22,                                     !- Hour 22
  0,                                      !- Minute 22
  0.700912408759124,                      !- Value Until Time 22
  23,                                     !- Hour 23
  0,                                      !- Minute 23
  0.670437956204379,                      !- Value Until Time 23
  24,                                     !- Hour 24
  0,                                      !- Minute 24
  0.624726277372263;                      !- Value Until Time 24

OS:Schedule:Rule,
  {bfae4cca-109c-4379-b43c-6e9ab83f1f4a}, !- Handle
  fridge_weekend_ruleset2,                !- Name
  {54fef731-b9bd-4afd-b015-6594a5e4fc30}, !- Schedule Ruleset Name
  20,                                     !- Rule Order
  {834a0f47-29c5-48f8-8c2b-e6ba743e480d}, !- Day Schedule Name
  Yes,                                    !- Apply Sunday
  No,                                     !- Apply Monday
  No,                                     !- Apply Tuesday
  No,                                     !- Apply Wednesday
  No,                                     !- Apply Thursday
  No,                                     !- Apply Friday
  Yes,                                    !- Apply Saturday
  ,                                       !- Apply Holiday
  DateRange,                              !- Date Specification Type
  2,                                      !- Start Month
  1,                                      !- Start Day
  2,                                      !- End Month
  28;                                     !- End Day

OS:Schedule:Day,
  {834a0f47-29c5-48f8-8c2b-e6ba743e480d}, !- Handle
  RefrigeratorWeekend2,                   !- Name
  ,                                       !- Schedule Type Limits Name
  ,                                       !- Interpolate to Timestep
  1,                                      !- Hour 1
  0,                                      !- Minute 1
  0.60948905109489,                       !- Value Until Time 1
  2,                                      !- Hour 2
  0,                                      !- Minute 2
  0.594251824817518,                      !- Value Until Time 2
  3,                                      !- Hour 3
  0,                                      !- Minute 3
  0.579014598540146,                      !- Value Until Time 3
  4,                                      !- Hour 4
  0,                                      !- Minute 4
  0.563777372262774,                      !- Value Until Time 4
  5,                                      !- Hour 5
  0,                                      !- Minute 5
  0.548540145985401,                      !- Value Until Time 5
  6,                                      !- Hour 6
  0,                                      !- Minute 6
  0.548540145985401,                      !- Value Until Time 6
  7,                                      !- Hour 7
  0,                                      !- Minute 7
  0.579014598540146,                      !- Value Until Time 7
  8,                                      !- Hour 8
  0,                                      !- Minute 8
  0.60948905109489,                       !- Value Until Time 8
  9,                                      !- Hour 9
  0,                                      !- Minute 9
  0.624726277372263,                      !- Value Until Time 9
  10,                                     !- Hour 10
  0,                                      !- Minute 10
  0.624726277372263,                      !- Value Until Time 10
  11,                                     !- Hour 11
  0,                                      !- Minute 11
  0.60948905109489,                       !- Value Until Time 11
  12,                                     !- Hour 12
  0,                                      !- Minute 12
  0.60948905109489,                       !- Value Until Time 12
  13,                                     !- Hour 13
  0,                                      !- Minute 13
  0.639963503649635,                      !- Value Until Time 13
  14,                                     !- Hour 14
  0,                                      !- Minute 14
  0.639963503649635,                      !- Value Until Time 14
  15,                                     !- Hour 15
  0,                                      !- Minute 15
  0.639963503649635,                      !- Value Until Time 15
  16,                                     !- Hour 16
  0,                                      !- Minute 16
  0.624726277372263,                      !- Value Until Time 16
  17,                                     !- Hour 17
  0,                                      !- Minute 17
  0.670437956204379,                      !- Value Until Time 17
  18,                                     !- Hour 18
  0,                                      !- Minute 18
  0.731386861313868,                      !- Value Until Time 18
  19,                                     !- Hour 19
  0,                                      !- Minute 19
  0.761861313868613,                      !- Value Until Time 19
  20,                                     !- Hour 20
  0,                                      !- Minute 20
  0.731386861313868,                      !- Value Until Time 20
  21,                                     !- Hour 21
  0,                                      !- Minute 21
  0.716149635036496,                      !- Value Until Time 21
  22,                                     !- Hour 22
  0,                                      !- Minute 22
  0.700912408759124,                      !- Value Until Time 22
  23,                                     !- Hour 23
  0,                                      !- Minute 23
  0.670437956204379,                      !- Value Until Time 23
  24,                                     !- Hour 24
  0,                                      !- Minute 24
  0.624726277372263;                      !- Value Until Time 24

OS:Schedule:Rule,
  {f7a06c49-3ef9-4b0e-98d4-9abf744c8001}, !- Handle
  fridge_weekday_ruleset3,                !- Name
  {54fef731-b9bd-4afd-b015-6594a5e4fc30}, !- Schedule Ruleset Name
  19,                                     !- Rule Order
  {d095ea78-278a-4df7-8576-3bda7724c871}, !- Day Schedule Name
  No,                                     !- Apply Sunday
  Yes,                                    !- Apply Monday
  Yes,                                    !- Apply Tuesday
  Yes,                                    !- Apply Wednesday
  Yes,                                    !- Apply Thursday
  Yes,                                    !- Apply Friday
  No,                                     !- Apply Saturday
  ,                                       !- Apply Holiday
  DateRange,                              !- Date Specification Type
  3,                                      !- Start Month
  1,                                      !- Start Day
  3,                                      !- End Month
  31;                                     !- End Day

OS:Schedule:Day,
  {d095ea78-278a-4df7-8576-3bda7724c871}, !- Handle
  RefrigeratorWeekday3,                   !- Name
  ,                                       !- Schedule Type Limits Name
  ,                                       !- Interpolate to Timestep
  1,                                      !- Hour 1
  0,                                      !- Minute 1
  0.791240875912409,                      !- Value Until Time 1
  2,                                      !- Hour 2
  0,                                      !- Minute 2
  0.771459854014598,                      !- Value Until Time 2
  3,                                      !- Hour 3
  0,                                      !- Minute 3
  0.751678832116788,                      !- Value Until Time 3
  4,                                      !- Hour 4
  0,                                      !- Minute 4
  0.731897810218978,                      !- Value Until Time 4
  5,                                      !- Hour 5
  0,                                      !- Minute 5
  0.712116788321168,                      !- Value Until Time 5
  6,                                      !- Hour 6
  0,                                      !- Minute 6
  0.712116788321168,                      !- Value Until Time 6
  7,                                      !- Hour 7
  0,                                      !- Minute 7
  0.751678832116788,                      !- Value Until Time 7
  8,                                      !- Hour 8
  0,                                      !- Minute 8
  0.791240875912409,                      !- Value Until Time 8
  9,                                      !- Hour 9
  0,                                      !- Minute 9
  0.811021897810219,                      !- Value Until Time 9
  10,                                     !- Hour 10
  0,                                      !- Minute 10
  0.811021897810219,                      !- Value Until Time 10
  11,                                     !- Hour 11
  0,                                      !- Minute 11
  0.791240875912409,                      !- Value Until Time 11
  12,                                     !- Hour 12
  0,                                      !- Minute 12
  0.791240875912409,                      !- Value Until Time 12
  13,                                     !- Hour 13
  0,                                      !- Minute 13
  0.830802919708029,                      !- Value Until Time 13
  14,                                     !- Hour 14
  0,                                      !- Minute 14
  0.830802919708029,                      !- Value Until Time 14
  15,                                     !- Hour 15
  0,                                      !- Minute 15
  0.830802919708029,                      !- Value Until Time 15
  16,                                     !- Hour 16
  0,                                      !- Minute 16
  0.811021897810219,                      !- Value Until Time 16
  17,                                     !- Hour 17
  0,                                      !- Minute 17
  0.87036496350365,                       !- Value Until Time 17
  18,                                     !- Hour 18
  0,                                      !- Minute 18
  0.94948905109489,                       !- Value Until Time 18
  19,                                     !- Hour 19
  0,                                      !- Minute 19
  0.989051094890511,                      !- Value Until Time 19
  20,                                     !- Hour 20
  0,                                      !- Minute 20
  0.94948905109489,                       !- Value Until Time 20
  21,                                     !- Hour 21
  0,                                      !- Minute 21
  0.92970802919708,                       !- Value Until Time 21
  22,                                     !- Hour 22
  0,                                      !- Minute 22
  0.90992700729927,                       !- Value Until Time 22
  23,                                     !- Hour 23
  0,                                      !- Minute 23
  0.87036496350365,                       !- Value Until Time 23
  24,                                     !- Hour 24
  0,                                      !- Minute 24
  0.811021897810219;                      !- Value Until Time 24

OS:Schedule:Rule,
  {5495af45-be18-45b2-b059-12c6faf6eb81}, !- Handle
  fridge_weekend_ruleset3,                !- Name
  {54fef731-b9bd-4afd-b015-6594a5e4fc30}, !- Schedule Ruleset Name
  18,                                     !- Rule Order
  {5efade2a-a7d5-418e-af5f-a315c598fe51}, !- Day Schedule Name
  Yes,                                    !- Apply Sunday
  No,                                     !- Apply Monday
  No,                                     !- Apply Tuesday
  No,                                     !- Apply Wednesday
  No,                                     !- Apply Thursday
  No,                                     !- Apply Friday
  Yes,                                    !- Apply Saturday
  ,                                       !- Apply Holiday
  DateRange,                              !- Date Specification Type
  3,                                      !- Start Month
  1,                                      !- Start Day
  3,                                      !- End Month
  31;                                     !- End Day

OS:Schedule:Day,
  {5efade2a-a7d5-418e-af5f-a315c598fe51}, !- Handle