
OS:Version,
  {3bf76a3e-de14-4837-92e5-375747a4fae2}, !- Handle
  1.3.1;                                  !- Version Identifier

OS:Construction,
  {4c8f61cf-8979-415c-87ea-cdafb5f3f5c0}, !- Handle
  ExtInsFinWall,                          !- Name
  ,                                       !- Surface Rendering Name
  {8e2bccd5-0203-4680-b6ef-eee968a4c5f0}, !- Layer 1
  {a932eec9-cd30-4d57-89be-7e11cf06e611}, !- Layer 2
  {1245678e-a08c-4753-b3d5-6b53db13decc}, !- Layer 3
  {07c38eae-b3b0-4c07-83a7-5a18872fdf10}; !- Layer 4

OS:Material,
  {8e2bccd5-0203-4680-b6ef-eee968a4c5f0}, !- Handle
  Exterior_Finish_Vinyl_Light,            !- Name
  Rough,                                  !- Roughness
  0.009525,                               !- Thickness {m}
  0.089435,                               !- Conductivity {W/m-K}
  177.822,                                !- Density {kg/m3}
  1046.75,                                !- Specific Heat {J/kg-K}
  0.9,                                    !- Thermal Absorptance
  0.3,                                    !- Solar Absorptance
  0.3;                                    !- Visible Absorptance

OS:Material,
  {a932eec9-cd30-4d57-89be-7e11cf06e611}, !- Handle
  Plywood_1_2in,                          !- Name
  Rough,                                  !- Roughness
  0.0127,                                 !- Thickness {m}
  0.1154577,                              !- Conductivity {W/m-K}
  512.64,                                 !- Density {kg/m3}
  1214.23;                                !- Specific Heat {J/kg-K}

OS:Material,
  {07c38eae-b3b0-4c07-83a7-5a18872fdf10}, !- Handle
  GypsumBoard_1_2in,                      !- Name
  Rough,                                  !- Roughness
  0.0127,                                 !- Thickness {m}
  0.1602906,                              !- Conductivity {W/m-K}
  801,                                    !- Density {kg/m3}
  837.4;                                  !- Specific Heat {J/kg-K}

OS:Material,
  {1245678e-a08c-4753-b3d5-6b53db13decc}, !- Handle
  StudandCavity,                          !- Name
  Rough,                                  !- Roughness
  0.0889,                                 !- Thickness {m}
  0.0542450177597404,                     !- Conductivity {W/m-K}
  162.40275,                              !- Density {kg/m3}
  1178.91670776818;                       !- Specific Heat {J/kg-K}

