
OS:Version,
  {e32e1b58-f00b-494a-9749-07cee0321726}, !- Handle
  1.3.1;                                  !- Version Identifier

OS:Construction,
  {f53d0c74-7e2e-4534-9b40-03d18baca3e0}, !- Handle
  GrndInsUnfinCSWall,                     !- Name
  ,                                       !- Surface Rendering Name
  {aed7fcf4-b23b-4c11-86aa-1ba7345b3a33}, !- Layer 1
  {2a1afffb-d6e2-4830-8aac-f86da4b67b53}, !- Layer 2
  {8658c056-2957-4d92-83ca-143ee0a7d79b}; !- Layer 3

OS:Material,
  {aed7fcf4-b23b-4c11-86aa-1ba7345b3a33}, !- Handle
  Soil_12in,                              !- Name
  Rough,                                  !- Roughness
  0.3048,                                 !- Thickness {m}
  1.731,                                  !- Conductivity {W/m-K}
  1842.3,                                 !- Density {kg/m3}
  418.7;                                  !- Specific Heat {J/kg-K}

OS:Material,
  {2a1afffb-d6e2-4830-8aac-f86da4b67b53}, !- Handle
  Concrete_8in,                           !- Name
  Rough,                                  !- Roughness
  0.2032,                                 !- Thickness {m}
  1.3114056,                              !- Conductivity {W/m-K}
  2242.79999999999,                       !- Density {kg/m3}
  837.4;                                  !- Specific Heat {J/kg-K}

OS:Material,
  {8658c056-2957-4d92-83ca-143ee0a7d79b}, !- Handle
  CWallIns,                               !- Name
  Rough,                                  !- Roughness
  0.05588,                                !- Thickness {m}
  0.02885,                                !- Conductivity {W/m-K}
  32.04,                                  !- Density {kg/m3}
  1214.23;                                !- Specific Heat {J/kg-K}

