
OS:Version,
  {a56c1e74-b12c-4bb2-a738-87e3aa5dc8d6}, !- Handle
  1.3.1;                                  !- Version Identifier

OS:Construction,
  {418dd103-a343-4f0e-8751-a813394ddfd4}, !- Handle
  ExtInsFinWall,                          !- Name
  ,                                       !- Surface Rendering Name
  {b757bde4-1628-4197-849e-704b3b694eac}, !- Layer 1
  {3f957043-2888-4946-8343-e74332c6ddcf}, !- Layer 2
  {fa93e532-53ff-4584-82dc-efcba178c2f3}, !- Layer 3
  {4f36cabf-33af-462b-8561-fe53a906d832}, !- Layer 4
  {d16ee3cf-ec3c-41a9-8304-844331f34400}, !- Layer 5
  {361f8a12-1b7d-4faa-99c6-5b3b330fdf8c}; !- Layer 6

OS:Material,
  {b757bde4-1628-4197-849e-704b3b694eac}, !- Handle
  Exterior_Finish_Vinyl_Light,            !- Name
  Rough,                                  !- Roughness
  0.009525,                               !- Thickness {m}
  0.089435,                               !- Conductivity {W/m-K}
  177.822,                                !- Density {kg/m3}
  1046.75,                                !- Specific Heat {J/kg-K}
  0.9,                                    !- Thermal Absorptance
  0.3,                                    !- Solar Absorptance
  0.3;                                    !- Visible Absorptance

OS:Material,
  {361f8a12-1b7d-4faa-99c6-5b3b330fdf8c}, !- Handle
  GypsumBoard_1_2in,                      !- Name
  Rough,                                  !- Roughness
  0.0127,                                 !- Thickness {m}
  0.1602906,                              !- Conductivity {W/m-K}
  801,                                    !- Density {kg/m3}
  837.4;                                  !- Specific Heat {J/kg-K}

OS:Material,
  {3f957043-2888-4946-8343-e74332c6ddcf}, !- Handle
  SplineLayer,                            !- Name
  Rough,                                  !- Roughness
  0.0127,                                 !- Thickness {m}
  0.0345205263589113,                     !- Conductivity {W/m-K}
  147.0636,                               !- Density {kg/m3}
  1214.23;                                !- Specific Heat {J/kg-K}

OS:Material,
  {fa93e532-53ff-4584-82dc-efcba178c2f3}, !- Handle
  WallIns,                                !- Name
  Rough,                                  !- Roughness
  0.066675,                               !- Thickness {m}
  0.0432304226285714,                     !- Conductivity {W/m-K}
  107.0136,                               !- Density {kg/m3}
  1214.23;                                !- Specific Heat {J/kg-K}

OS:Material,
  {4f36cabf-33af-462b-8561-fe53a906d832}, !- Handle
  SplineLayer 1,                          !- Name
  Rough,                                  !- Roughness
  0.0127,                                 !- Thickness {m}
  0.0345205263589113,                     !- Conductivity {W/m-K}
  147.0636,                               !- Density {kg/m3}
  1214.23;                                !- Specific Heat {J/kg-K}

OS:Material,
  {d16ee3cf-ec3c-41a9-8304-844331f34400}, !- Handle
  IntSheathing,                           !- Name
  Rough,                                  !- Roughness
  0.0127,                                 !- Thickness {m}
  0.1602906,                              !- Conductivity {W/m-K}
  801,                                    !- Density {kg/m3}
  837.4;                                  !- Specific Heat {J/kg-K}

