!- NOTE: Auto-generated from /test/osw_files/SFD_2000sqft_2story_SL_FA_AllLayersButExteriorFinish.osw

OS:Version,
  {842b2362-1e9f-4ce6-9a99-f201cc500196}, !- Handle
  2.0.4;                                  !- Version Identifier

OS:Building,
  {bf305633-c5a1-4881-9edf-ca5e1a8e1274}, !- Handle
  Building,                               !- Name
  ,                                       !- Building Sector Type
  ,                                       !- North Axis {deg}
  ,                                       !- Nominal Floor to Floor Height {m}
  ,                                       !- Space Type Name
  ,                                       !- Default Construction Set Name
  ,                                       !- Default Schedule Set Name
  3,                                      !- Standards Number of Stories
  3,                                      !- Standards Number of Above Ground Stories
  singlefamilydetached,                   !- Standards Building Type
  1;                                      !- Standards Number of Living Units

OS:YearDescription,
  {513d8dda-86cb-442a-b01c-1f7f0e0ac70e}; !- Handle

OS:SimulationControl,
  {2c487a4c-bac9-4ac5-b669-1e49d9da7c2b}, !- Handle
  ,                                       !- Do Zone Sizing Calculation
  ,                                       !- Do System Sizing Calculation
  ,                                       !- Do Plant Sizing Calculation
  No,                                     !- Run Simulation for Sizing Periods
  ;                                       !- Run Simulation for Weather File Run Periods

OS:Timestep,
  {4ebc9f1e-4707-402e-9844-67eb1ffbd522}, !- Handle
  6;                                      !- Number of Timesteps per Hour

OS:RunPeriod,
  {28df894d-6af9-4fb8-8f56-df1753344aa3}, !- Handle
  Run Period,                             !- Name
  1,                                      !- Begin Month
  1,                                      !- Begin Day of Month
  12,                                     !- End Month
  31,                                     !- End Day of Month
  ,                                       !- Use Weather File Holidays and Special Days
  ,                                       !- Use Weather File Daylight Saving Period
  ,                                       !- Apply Weekend Holiday Rule
  ,                                       !- Use Weather File Rain Indicators
  ,                                       !- Use Weather File Snow Indicators
  ;                                       !- Number of Times Runperiod to be Repeated

OS:Sizing:Parameters,
  {dde5af6f-7923-4600-a28a-7556673a0266}, !- Handle
  1.0,                                    !- Heating Sizing Factor
  1.0;                                    !- Cooling Sizing Factor

OS:ShadowCalculation,
  {ca758bea-4416-4626-9bba-3d8795c79bd6}, !- Handle
  20,                                     !- Calculation Frequency
  200;                                    !- Maximum Figures in Shadow Overlap Calculations

OS:SurfaceConvectionAlgorithm:Inside,
  {aaabfc36-718a-4ab0-b622-f186ebb45230}, !- Handle
  TARP;                                   !- Algorithm

OS:SurfaceConvectionAlgorithm:Outside,
  {9a0a9f6f-4bbd-4b12-a121-9492a1fcd7d6}, !- Handle
  DOE-2;                                  !- Algorithm

OS:HeatBalanceAlgorithm,
  {9d93e563-e1e0-46d7-9e39-d1c8aceb7212}, !- Handle
  ConductionTransferFunction,             !- Algorithm
  200;                                    !- Surface Temperature Upper Limit {C}

OS:ZoneCapacitanceMultiplier:ResearchSpecial,
  {6bfced16-b16f-47f6-8223-f7e267d75d19}, !- Handle
  ,                                       !- Temperature Capacity Multiplier
  15,                                     !- Humidity Capacity Multiplier
  ;                                       !- Carbon Dioxide Capacity Multiplier

OS:ThermalZone,
  {2e2c753e-af10-4841-b6f7-a084875c2a04}, !- Handle
  living zone,                            !- Name
  ,                                       !- Multiplier
  ,                                       !- Ceiling Height {m}
  ,                                       !- Volume {m3}
  ,                                       !- Floor Area {m2}
  ,                                       !- Zone Inside Convection Algorithm
  ,                                       !- Zone Outside Convection Algorithm
  ,                                       !- Zone Conditioning Equipment List Name
  {47c9f45d-3b16-456b-b5cb-f2c6b5d4f178}, !- Zone Air Inlet Port List
  {32addb4e-fa17-4f9d-acbb-70d8fbc7b2bb}, !- Zone Air Exhaust Port List
  {569b42fe-f082-423e-8035-c0dc2853ca69}, !- Zone Air Node Name
  ,                                       !- Zone Return Air Node Name
  ,                                       !- Primary Daylighting Control Name
  ,                                       !- Fraction of Zone Controlled by Primary Daylighting Control
  ,                                       !- Secondary Daylighting Control Name
  ,                                       !- Fraction of Zone Controlled by Secondary Daylighting Control
  ,                                       !- Illuminance Map Name
  ,                                       !- Group Rendering Name
  ,                                       !- Thermostat Name
  No;                                     !- Use Ideal Air Loads

OS:Node,
  {aaf31d4e-f4bf-4c9d-a01c-eb8912b2de52}, !- Handle
  Node 1,                                 !- Name
  {569b42fe-f082-423e-8035-c0dc2853ca69}, !- Inlet Port
  ;                                       !- Outlet Port

OS:Connection,
  {569b42fe-f082-423e-8035-c0dc2853ca69}, !- Handle
  {cbe21d0e-8426-4ea2-8885-a764f33709d9}, !- Name
  {2e2c753e-af10-4841-b6f7-a084875c2a04}, !- Source Object
  11,                                     !- Outlet Port
  {aaf31d4e-f4bf-4c9d-a01c-eb8912b2de52}, !- Target Object
  2;                                      !- Inlet Port

OS:PortList,
  {47c9f45d-3b16-456b-b5cb-f2c6b5d4f178}, !- Handle
  Port List 1,                            !- Name
  {2e2c753e-af10-4841-b6f7-a084875c2a04}; !- HVAC Component

OS:PortList,
  {32addb4e-fa17-4f9d-acbb-70d8fbc7b2bb}, !- Handle
  Port List 2,                            !- Name
  {2e2c753e-af10-4841-b6f7-a084875c2a04}; !- HVAC Component

OS:Sizing:Zone,
  {03a9e714-2dd2-4ff6-951f-b0c6fbafa589}, !- Handle
  {2e2c753e-af10-4841-b6f7-a084875c2a04}, !- Zone or ZoneList Name
  SupplyAirTemperature,                   !- Zone Cooling Design Supply Air Temperature Input Method
  14,                                     !- Zone Cooling Design Supply Air Temperature {C}
  11.11,                                  !- Zone Cooling Design Supply Air Temperature Difference {deltaC}
  SupplyAirTemperature,                   !- Zone Heating Design Supply Air Temperature Input Method
  40,                                     !- Zone Heating Design Supply Air Temperature {C}
  11.11,                                  !- Zone Heating Design Supply Air Temperature Difference {deltaC}
  0.0085,                                 !- Zone Cooling Design Supply Air Humidity Ratio {kg-H2O/kg-air}
  0.008,                                  !- Zone Heating Design Supply Air Humidity Ratio {kg-H2O/kg-air}
  ,                                       !- Zone Heating Sizing Factor
  ,                                       !- Zone Cooling Sizing Factor
  DesignDay,                              !- Cooling Design Air Flow Method
  ,                                       !- Cooling Design Air Flow Rate {m3/s}
  ,                                       !- Cooling Minimum Air Flow per Zone Floor Area {m3/s-m2}
  ,                                       !- Cooling Minimum Air Flow {m3/s}
  ,                                       !- Cooling Minimum Air Flow Fraction
  DesignDay,                              !- Heating Design Air Flow Method
  ,                                       !- Heating Design Air Flow Rate {m3/s}
  ,                                       !- Heating Maximum Air Flow per Zone Floor Area {m3/s-m2}
  ,                                       !- Heating Maximum Air Flow {m3/s}
  ,                                       !- Heating Maximum Air Flow Fraction
  ,                                       !- Design Zone Air Distribution Effectiveness in Cooling Mode
  ,                                       !- Design Zone Air Distribution Effectiveness in Heating Mode
  No,                                     !- Account for Dedicated Outdoor Air System
  NeutralSupplyAir,                       !- Dedicated Outdoor Air System Control Strategy
  autosize,                               !- Dedicated Outdoor Air Low Setpoint Temperature for Design {C}
  autosize;                               !- Dedicated Outdoor Air High Setpoint Temperature for Design {C}

OS:ZoneHVAC:EquipmentList,
  {4a1d7520-5839-4ef6-bcbe-8f70187650f8}, !- Handle
  Zone HVAC Equipment List 1,             !- Name
  {2e2c753e-af10-4841-b6f7-a084875c2a04}; !- Thermal Zone

OS:Space,
  {efb4501c-0fe1-42a1-85f0-9daa80d16196}, !- Handle
  living space,                           !- Name
  ,                                       !- Space Type Name
  ,                                       !- Default Construction Set Name
  ,                                       !- Default Schedule Set Name
  -0,                                     !- Direction of Relative North {deg}
  0,                                      !- X Origin {m}
  0,                                      !- Y Origin {m}
  0,                                      !- Z Origin {m}
  ,                                       !- Building Story Name
  {2e2c753e-af10-4841-b6f7-a084875c2a04}, !- Thermal Zone Name
  ,                                       !- Part of Total Floor Area
  ,                                       !- Design Specification Outdoor Air Object Name
  {9b02dbeb-57eb-45a0-b639-f9c81190ece4}; !- Building Unit Name

OS:Surface,
  {9ed40d0e-0778-4d66-b2b4-9b79edc5680b}, !- Handle
  Surface 1,                              !- Name
  Floor,                                  !- Surface Type
  ,                                       !- Construction Name
  {efb4501c-0fe1-42a1-85f0-9daa80d16196}, !- Space Name
  Ground,                                 !- Outside Boundary Condition
  ,                                       !- Outside Boundary Condition Object
  NoSun,                                  !- Sun Exposure
  NoWind,                                 !- Wind Exposure
  ,                                       !- View Factor to Ground
  ,                                       !- Number of Vertices
  0, 0, 0,                                !- X,Y,Z Vertex 1 {m}
  0, 5.56486118425249, 0,                 !- X,Y,Z Vertex 2 {m}
  11.129722368505, 5.56486118425249, 0,   !- X,Y,Z Vertex 3 {m}
  11.129722368505, 0, 0;                  !- X,Y,Z Vertex 4 {m}

OS:Surface,
  {2df5f1c3-8ba2-42c7-bfa6-7dd7d3f87a80}, !- Handle
  Surface 2,                              !- Name
  Wall,                                   !- Surface Type
  {448b858d-b984-45c1-a99d-e6ac5e73b842}, !- Construction Name
  {efb4501c-0fe1-42a1-85f0-9daa80d16196}, !- Space Name
  Outdoors,                               !- Outside Boundary Condition
  ,                                       !- Outside Boundary Condition Object
  SunExposed,                             !- Sun Exposure
  WindExposed,                            !- Wind Exposure
  ,                                       !- View Factor to Ground
  ,                                       !- Number of Vertices
  0, 5.56486118425249, 2.4384,            !- X,Y,Z Vertex 1 {m}
  0, 5.56486118425249, 0,                 !- X,Y,Z Vertex 2 {m}
  0, 0, 0,                                !- X,Y,Z Vertex 3 {m}
  0, 0, 2.4384;                           !- X,Y,Z Vertex 4 {m}

OS:Surface,
  {e9122d6f-41b3-4f52-b16a-0f2816c40f35}, !- Handle
  Surface 3,                              !- Name
  Wall,                                   !- Surface Type
  {448b858d-b984-45c1-a99d-e6ac5e73b842}, !- Construction Name
  {efb4501c-0fe1-42a1-85f0-9daa80d16196}, !- Space Name
  Outdoors,                               !- Outside Boundary Condition
  ,                                       !- Outside Boundary Condition Object
  SunExposed,                             !- Sun Exposure
  WindExposed,                            !- Wind Exposure
  ,                                       !- View Factor to Ground
  ,                                       !- Number of Vertices
  11.129722368505, 5.56486118425249, 2.4384, !- X,Y,Z Vertex 1 {m}
  11.129722368505, 5.56486118425249, 0,   !- X,Y,Z Vertex 2 {m}
  0, 5.56486118425249, 0,                 !- X,Y,Z Vertex 3 {m}
  0, 5.56486118425249, 2.4384;            !- X,Y,Z Vertex 4 {m}

OS:Surface,
  {f7c4ce99-c9a4-45a9-bbbe-618cffd8d470}, !- Handle
  Surface 4,                              !- Name
  Wall,                                   !- Surface Type
  {448b858d-b984-45c1-a99d-e6ac5e73b842}, !- Construction Name
  {efb4501c-0fe1-42a1-85f0-9daa80d16196}, !- Space Name
  Outdoors,                               !- Outside Boundary Condition
  ,                                       !- Outside Boundary Condition Object
  SunExposed,                             !- Sun Exposure
  WindExposed,                            !- Wind Exposure
  ,                                       !- View Factor to Ground
  ,                                       !- Number of Vertices
  11.129722368505, 0, 2.4384,             !- X,Y,Z Vertex 1 {m}
  11.129722368505, 0, 0,                  !- X,Y,Z Vertex 2 {m}
  11.129722368505, 5.56486118425249, 0,   !- X,Y,Z Vertex 3 {m}
  11.129722368505, 5.56486118425249, 2.4384; !- X,Y,Z Vertex 4 {m}

OS:Surface,
  {31ed7038-d33f-4383-a3d3-909c37981e51}, !- Handle
  Surface 5,                              !- Name
  Wall,                                   !- Surface Type
  {448b858d-b984-45c1-a99d-e6ac5e73b842}, !- Construction Name
  {efb4501c-0fe1-42a1-85f0-9daa80d16196}, !- Space Name
  Outdoors,                               !- Outside Boundary Condition
  ,                                       !- Outside Boundary Condition Object
  SunExposed,                             !- Sun Exposure
  WindExposed,                            !- Wind Exposure
  ,                                       !- View Factor to Ground
  ,                                       !- Number of Vertices
  0, 0, 2.4384,                           !- X,Y,Z Vertex 1 {m}
  0, 0, 0,                                !- X,Y,Z Vertex 2 {m}
  11.129722368505, 0, 0,                  !- X,Y,Z Vertex 3 {m}
  11.129722368505, 0, 2.4384;             !- X,Y,Z Vertex 4 {m}

OS:Surface,
  {b526c1a5-72ca-4874-8c9b-b5615cb879b0}, !- Handle
  Surface 6,                              !- Name
  RoofCeiling,                            !- Surface Type
  ,                                       !- Construction Name
  {efb4501c-0fe1-42a1-85f0-9daa80d16196}, !- Space Name
  Surface,                                !- Outside Boundary Condition
  {43a8f499-b83a-4a76-8c7f-da8050fda70b}, !- Outside Boundary Condition Object
  NoSun,                                  !- Sun Exposure
  NoWind,                                 !- Wind Exposure
  ,                                       !- View Factor to Ground
  ,                                       !- Number of Vertices
  11.129722368505, 0, 2.4384,             !- X,Y,Z Vertex 1 {m}
  11.129722368505, 5.56486118425249, 2.4384, !- X,Y,Z Vertex 2 {m}
  0, 5.56486118425249, 2.4384,            !- X,Y,Z Vertex 3 {m}
  0, 0, 2.4384;                           !- X,Y,Z Vertex 4 {m}

OS:Space,
  {b3f364d9-be81-441a-ba25-30aed9cddc6f}, !- Handle
  living space|story 2,                   !- Name
  ,                                       !- Space Type Name
  ,                                       !- Default Construction Set Name
  ,                                       !- Default Schedule Set Name
  -0,                                     !- Direction of Relative North {deg}
  0,                                      !- X Origin {m}
  0,                                      !- Y Origin {m}
  2.4384,                                 !- Z Origin {m}
  ,                                       !- Building Story Name
  {2e2c753e-af10-4841-b6f7-a084875c2a04}, !- Thermal Zone Name
  ,                                       !- Part of Total Floor Area
  ,                                       !- Design Specification Outdoor Air Object Name
  {9b02dbeb-57eb-45a0-b639-f9c81190ece4}; !- Building Unit Name

OS:Surface,
  {43a8f499-b83a-4a76-8c7f-da8050fda70b}, !- Handle
  Surface 7,                              !- Name
  Floor,                                  !- Surface Type
  ,                                       !- Construction Name
  {b3f364d9-be81-441a-ba25-30aed9cddc6f}, !- Space Name
  Surface,                                !- Outside Boundary Condition
  {b526c1a5-72ca-4874-8c9b-b5615cb879b0}, !- Outside Boundary Condition Object
  NoSun,                                  !- Sun Exposure
  NoWind,                                 !- Wind Exposure
  ,                                       !- View Factor to Ground
  ,                                       !- Number of Vertices
  0, 0, 0,                                !- X,Y,Z Vertex 1 {m}
  0, 5.56486118425249, 0,                 !- X,Y,Z Vertex 2 {m}
  11.129722368505, 5.56486118425249, 0,   !- X,Y,Z Vertex 3 {m}
  11.129722368505, 0, 0;                  !- X,Y,Z Vertex 4 {m}

OS:Surface,
  {2c280772-d481-4849-8015-dd85838abed6}, !- Handle
  Surface 8,                              !- Name
  Wall,                                   !- Surface Type
  {448b858d-b984-45c1-a99d-e6ac5e73b842}, !- Construction Name
  {b3f364d9-be81-441a-ba25-30aed9cddc6f}, !- Space Name
  Outdoors,                               !- Outside Boundary Condition
  ,                                       !- Outside Boundary Condition Object
  SunExposed,                             !- Sun Exposure
  WindExposed,                            !- Wind Exposure
  ,                                       !- View Factor to Ground
  ,                                       !- Number of Vertices
  0, 5.56486118425249, 2.4384,            !- X,Y,Z Vertex 1 {m}
  0, 5.56486118425249, 0,                 !- X,Y,Z Vertex 2 {m}
  0, 0, 0,                                !- X,Y,Z Vertex 3 {m}
  0, 0, 2.4384;                           !- X,Y,Z Vertex 4 {m}

OS:Surface,
  {f028901b-cd13-42d9-bae8-9215b1315e98}, !- Handle
  Surface 9,                              !- Name
  Wall,                                   !- Surface Type
  {448b858d-b984-45c1-a99d-e6ac5e73b842}, !- Construction Name
  {b3f364d9-be81-441a-ba25-30aed9cddc6f}, !- Space Name
  Outdoors,                               !- Outside Boundary Condition
  ,                                       !- Outside Boundary Condition Object
  SunExposed,                             !- Sun Exposure
  WindExposed,                            !- Wind Exposure
  ,                                       !- View Factor to Ground
  ,                                       !- Number of Vertices
  11.129722368505, 5.56486118425249, 2.4384, !- X,Y,Z Vertex 1 {m}
  11.129722368505, 5.56486118425249, 0,   !- X,Y,Z Vertex 2 {m}
  0, 5.56486118425249, 0,                 !- X,Y,Z Vertex 3 {m}
  0, 5.56486118425249, 2.4384;            !- X,Y,Z Vertex 4 {m}

OS:Surface,
  {36617fe9-fdcb-49dd-88cf-3b4210bb1453}, !- Handle
  Surface 10,                             !- Name
  Wall,                                   !- Surface Type
  {448b858d-b984-45c1-a99d-e6ac5e73b842}, !- Construction Name
  {b3f364d9-be81-441a-ba25-30aed9cddc6f}, !- Space Name
  Outdoors,                               !- Outside Boundary Condition
  ,                                       !- Outside Boundary Condition Object
  SunExposed,                             !- Sun Exposure
  WindExposed,                            !- Wind Exposure
  ,                                       !- View Factor to Ground
  ,                                       !- Number of Vertices
  11.129722368505, 0, 2.4384,             !- X,Y,Z Vertex 1 {m}
  11.129722368505, 0, 0,                  !- X,Y,Z Vertex 2 {m}
  11.129722368505, 5.56486118425249, 0,   !- X,Y,Z Vertex 3 {m}
  11.129722368505, 5.56486118425249, 2.4384; !- X,Y,Z Vertex 4 {m}

OS:Surface,
  {cde9c5a4-e00f-4c05-80e3-849cf7b4246d}, !- Handle
  Surface 11,                             !- Name
  Wall,                                   !- Surface Type
  {448b858d-b984-45c1-a99d-e6ac5e73b842}, !- Construction Name
  {b3f364d9-be81-441a-ba25-30aed9cddc6f}, !- Space Name
  Outdoors,                               !- Outside Boundary Condition
  ,                                       !- Outside Boundary Condition Object
  SunExposed,                             !- Sun Exposure
  WindExposed,                            !- Wind Exposure
  ,                                       !- View Factor to Ground
  ,                                       !- Number of Vertices
  0, 0, 2.4384,                           !- X,Y,Z Vertex 1 {m}
  0, 0, 0,                                !- X,Y,Z Vertex 2 {m}
  11.129722368505, 0, 0,                  !- X,Y,Z Vertex 3 {m}
  11.129722368505, 0, 2.4384;             !- X,Y,Z Vertex 4 {m}

OS:Surface,
  {3a5c8eff-ad7f-4aad-b30f-87e38a8dc5e6}, !- Handle
  Surface 12,                             !- Name
  RoofCeiling,                            !- Surface Type
  ,                                       !- Construction Name
  {b3f364d9-be81-441a-ba25-30aed9cddc6f}, !- Space Name
  Surface,                                !- Outside Boundary Condition
  {7e2f8a15-ac89-46c3-a3f0-fda88351a5b1}, !- Outside Boundary Condition Object
  NoSun,                                  !- Sun Exposure
  NoWind,                                 !- Wind Exposure
  ,                                       !- View Factor to Ground
  ,                                       !- Number of Vertices
  11.129722368505, 0, 2.4384,             !- X,Y,Z Vertex 1 {m}
  11.129722368505, 5.56486118425249, 2.4384, !- X,Y,Z Vertex 2 {m}
  0, 5.56486118425249, 2.4384,            !- X,Y,Z Vertex 3 {m}
  0, 0, 2.4384;                           !- X,Y,Z Vertex 4 {m}

OS:Surface,
  {7e2f8a15-ac89-46c3-a3f0-fda88351a5b1}, !- Handle
  Surface 13,                             !- Name
  Floor,                                  !- Surface Type
  ,                                       !- Construction Name
  {d84e4ad0-4edd-40f6-8efd-bdfda31d2a9b}, !- Space Name
  Surface,                                !- Outside Boundary Condition
  {3a5c8eff-ad7f-4aad-b30f-87e38a8dc5e6}, !- Outside Boundary Condition Object
  NoSun,                                  !- Sun Exposure
  NoWind,                                 !- Wind Exposure
  ,                                       !- View Factor to Ground
  ,                                       !- Number of Vertices
  0, 5.56486118425249, 0,                 !- X,Y,Z Vertex 1 {m}
  11.129722368505, 5.56486118425249, 0,   !- X,Y,Z Vertex 2 {m}
  11.129722368505, 0, 0,                  !- X,Y,Z Vertex 3 {m}
  0, 0, 0;                                !- X,Y,Z Vertex 4 {m}

OS:Surface,
  {4e68f41b-0c13-4ff9-bb42-ba2eb0bfd841}, !- Handle
  Surface 14,                             !- Name
  RoofCeiling,                            !- Surface Type
  ,                                       !- Construction Name
  {d84e4ad0-4edd-40f6-8efd-bdfda31d2a9b}, !- Space Name
  Outdoors,                               !- Outside Boundary Condition
  ,                                       !- Outside Boundary Condition Object
  SunExposed,                             !- Sun Exposure
  WindExposed,                            !- Wind Exposure
  ,                                       !- View Factor to Ground
  ,                                       !- Number of Vertices
  11.129722368505, 2.78243059212624, 1.39121529606312, !- X,Y,Z Vertex 1 {m}
  0, 2.78243059212624, 1.39121529606312,  !- X,Y,Z Vertex 2 {m}
  0, 0, 0,                                !- X,Y,Z Vertex 3 {m}
  11.129722368505, 0, 0;                  !- X,Y,Z Vertex 4 {m}

OS:Surface,
  {5aa63203-1735-4146-b69f-5d64ee8a2e69}, !- Handle
  Surface 15,                             !- Name
  RoofCeiling,                            !- Surface Type
  ,                                       !- Construction Name
  {d84e4ad0-4edd-40f6-8efd-bdfda31d2a9b}, !- Space Name
  Outdoors,                               !- Outside Boundary Condition
  ,                                       !- Outside Boundary Condition Object
  SunExposed,                             !- Sun Exposure
  WindExposed,                            !- Wind Exposure
  ,                                       !- View Factor to Ground
  ,                                       !- Number of Vertices
  0, 2.78243059212624, 1.39121529606312,  !- X,Y,Z Vertex 1 {m}
  11.129722368505, 2.78243059212624, 1.39121529606312, !- X,Y,Z Vertex 2 {m}
  11.129722368505, 5.56486118425249, 0,   !- X,Y,Z Vertex 3 {m}
  0, 5.56486118425249, 0;                 !- X,Y,Z Vertex 4 {m}

OS:Surface,
  {4ccdfe66-d51a-4146-a360-bc66c4cfde46}, !- Handle
  Surface 16,                             !- Name
  Wall,                                   !- Surface Type
  {448b858d-b984-45c1-a99d-e6ac5e73b842}, !- Construction Name
  {d84e4ad0-4edd-40f6-8efd-bdfda31d2a9b}, !- Space Name
  Outdoors,                               !- Outside Boundary Condition
  ,                                       !- Outside Boundary Condition Object
  SunExposed,                             !- Sun Exposure
  WindExposed,                            !- Wind Exposure
  ,                                       !- View Factor to Ground
  ,                                       !- Number of Vertices
  0, 2.78243059212624, 1.39121529606312,  !- X,Y,Z Vertex 1 {m}
  0, 5.56486118425249, 0,                 !- X,Y,Z Vertex 2 {m}
  0, 0, 0;                                !- X,Y,Z Vertex 3 {m}

OS:Surface,
  {3082c9a8-6972-4ade-82df-0ed015635395}, !- Handle
  Surface 17,                             !- Name
  Wall,                                   !- Surface Type
  {448b858d-b984-45c1-a99d-e6ac5e73b842}, !- Construction Name
  {d84e4ad0-4edd-40f6-8efd-bdfda31d2a9b}, !- Space Name
  Outdoors,                               !- Outside Boundary Condition
  ,                                       !- Outside Boundary Condition Object
  SunExposed,                             !- Sun Exposure
  WindExposed,                            !- Wind Exposure
  ,                                       !- View Factor to Ground
  ,                                       !- Number of Vertices
  11.129722368505, 2.78243059212624, 1.39121529606312, !- X,Y,Z Vertex 1 {m}
  11.129722368505, 0, 0,                  !- X,Y,Z Vertex 2 {m}
  11.129722368505, 5.56486118425249, 0;   !- X,Y,Z Vertex 3 {m}

OS:Space,
  {d84e4ad0-4edd-40f6-8efd-bdfda31d2a9b}, !- Handle
  finished attic space,                   !- Name
  ,                                       !- Space Type Name
  ,                                       !- Default Construction Set Name
  ,                                       !- Default Schedule Set Name
  -0,                                     !- Direction of Relative North {deg}
  0,                                      !- X Origin {m}
  0,                                      !- Y Origin {m}
  4.8768,                                 !- Z Origin {m}
  ,                                       !- Building Story Name
  {2e2c753e-af10-4841-b6f7-a084875c2a04}, !- Thermal Zone Name
  ,                                       !- Part of Total Floor Area
  ,                                       !- Design Specification Outdoor Air Object Name
  {9b02dbeb-57eb-45a0-b639-f9c81190ece4}; !- Building Unit Name

OS:BuildingUnit,
  {9b02dbeb-57eb-45a0-b639-f9c81190ece4}, !- Handle
  unit 1,                                 !- Name
  ,                                       !- Rendering Color
  Residential,                            !- Building Unit Type
  SizingInfoWallType|{36617fe9-fdcb-49dd-88cf-3b4210bb1453}, !- Building Unit Feature Name 1
  String,                                 !- Building Unit Feature Data Type 1
  WoodStud,                               !- Building Unit Feature Value 1
  SizingInfoWoodStudWallCavityRvalue|{36617fe9-fdcb-49dd-88cf-3b4210bb1453}, !- Building Unit Feature Name 2
  Double,                                 !- Building Unit Feature Data Type 2
  13,                                     !- Building Unit Feature Value 2
  SizingInfoWallType|{cde9c5a4-e00f-4c05-80e3-849cf7b4246d}, !- Building Unit Feature Name 3
  String,                                 !- Building Unit Feature Data Type 3
  WoodStud,                               !- Building Unit Feature Value 3
  SizingInfoWoodStudWallCavityRvalue|{cde9c5a4-e00f-4c05-80e3-849cf7b4246d}, !- Building Unit Feature Name 4
  Double,                                 !- Building Unit Feature Data Type 4
  13,                                     !- Building Unit Feature Value 4
  SizingInfoWallType|{f028901b-cd13-42d9-bae8-9215b1315e98}, !- Building Unit Feature Name 5
  String,                                 !- Building Unit Feature Data Type 5
  WoodStud,                               !- Building Unit Feature Value 5
  SizingInfoWoodStudWallCavityRvalue|{f028901b-cd13-42d9-bae8-9215b1315e98}, !- Building Unit Feature Name 6
  Double,                                 !- Building Unit Feature Data Type 6
  13,                                     !- Building Unit Feature Value 6
  SizingInfoWallType|{2c280772-d481-4849-8015-dd85838abed6}, !- Building Unit Feature Name 7
  String,                                 !- Building Unit Feature Data Type 7
  WoodStud,                               !- Building Unit Feature Value 7
  SizingInfoWoodStudWallCavityRvalue|{2c280772-d481-4849-8015-dd85838abed6}, !- Building Unit Feature Name 8