!- NOTE: Auto-generated from /test/osw_files/SFD_2000sqft_2story_SL_FA_AllLayersButExteriorFinish.osw

OS:Version,
  {759d846a-0a6a-4af3-b602-9c363fafcf73}, !- Handle
  2.0.4;                                  !- Version Identifier

OS:Building,
  {bf305633-c5a1-4881-9edf-ca5e1a8e1274}, !- Handle
  Building,                               !- Name
  ,                                       !- Building Sector Type
  ,                                       !- North Axis {deg}
  ,                                       !- Nominal Floor to Floor Height {m}
  ,                                       !- Space Type Name
  ,                                       !- Default Construction Set Name
  ,                                       !- Default Schedule Set Name
  3,                                      !- Standards Number of Stories
  3,                                      !- Standards Number of Above Ground Stories
  singlefamilydetached,                   !- Standards Building Type
  1;                                      !- Standards Number of Living Units

OS:YearDescription,
  {513d8dda-86cb-442a-b01c-1f7f0e0ac70e}; !- Handle

OS:SimulationControl,
  {2c487a4c-bac9-4ac5-b669-1e49d9da7c2b}, !- Handle
  ,                                       !- Do Zone Sizing Calculation
  ,                                       !- Do System Sizing Calculation
  ,                                       !- Do Plant Sizing Calculation
  No,                                     !- Run Simulation for Sizing Periods
  ;                                       !- Run Simulation for Weather File Run Periods

OS:Timestep,
  {4ebc9f1e-4707-402e-9844-67eb1ffbd522}, !- Handle
  6;                                      !- Number of Timesteps per Hour

OS:RunPeriod,
  {28df894d-6af9-4fb8-8f56-df1753344aa3}, !- Handle
  Run Period,                             !- Name
  1,                                      !- Begin Month
  1,                                      !- Begin Day of Month
  12,                                     !- End Month
  31,                                     !- End Day of Month
  ,                                       !- Use Weather File Holidays and Special Days
  ,                                       !- Use Weather File Daylight Saving Period
  ,                                       !- Apply Weekend Holiday Rule
  ,                                       !- Use Weather File Rain Indicators
  ,                                       !- Use Weather File Snow Indicators
  ;                                       !- Number of Times Runperiod to be Repeated

OS:Sizing:Parameters,
  {dde5af6f-7923-4600-a28a-7556673a0266}, !- Handle
  1.0,                                    !- Heating Sizing Factor
  1.0;                                    !- Cooling Sizing Factor

OS:ShadowCalculation,
  {ca758bea-4416-4626-9bba-3d8795c79bd6}, !- Handle
  20,                                     !- Calculation Frequency
  200;                                    !- Maximum Figures in Shadow Overlap Calculations

OS:SurfaceConvectionAlgorithm:Inside,
  {aaabfc36-718a-4ab0-b622-f186ebb45230}, !- Handle
  TARP;                                   !- Algorithm

OS:SurfaceConvectionAlgorithm:Outside,
  {9a0a9f6f-4bbd-4b12-a121-9492a1fcd7d6}, !- Handle
  DOE-2;                                  !- Algorithm

OS:HeatBalanceAlgorithm,
  {9d93e563-e1e0-46d7-9e39-d1c8aceb7212}, !- Handle
  ConductionTransferFunction,             !- Algorithm
  200;                                    !- Surface Temperature Upper Limit {C}

OS:ZoneCapacitanceMultiplier:ResearchSpecial,
  {6bfced16-b16f-47f6-8223-f7e267d75d19}, !- Handle
  ,                                       !- Temperature Capacity Multiplier
  15,                                     !- Humidity Capacity Multiplier
  ;                                       !- Carbon Dioxide Capacity Multiplier

OS:ThermalZone,
  {c98f2d43-29c7-4f39-9566-f21f952cc52b}, !- Handle
  living zone,                            !- Name
  ,                                       !- Multiplier
  ,                                       !- Ceiling Height {m}
  ,                                       !- Volume {m3}
  ,                                       !- Floor Area {m2}
  ,                                       !- Zone Inside Convection Algorithm
  ,                                       !- Zone Outside Convection Algorithm
  ,                                       !- Zone Conditioning Equipment List Name
  {7d77c5cb-e3a8-4e8f-9ab6-b799c88c1690}, !- Zone Air Inlet Port List
  {373bd5a5-6633-4609-bbbb-8e26a44af3b0}, !- Zone Air Exhaust Port List
  {d07f9b21-ae06-4aaa-925c-59ec27ea2944}, !- Zone Air Node Name
  ,                                       !- Zone Return Air Node Name
  ,                                       !- Primary Daylighting Control Name
  ,                                       !- Fraction of Zone Controlled by Primary Daylighting Control
  ,                                       !- Secondary Daylighting Control Name
  ,                                       !- Fraction of Zone Controlled by Secondary Daylighting Control
  ,                                       !- Illuminance Map Name
  ,                                       !- Group Rendering Name
  ,                                       !- Thermostat Name
  No;                                     !- Use Ideal Air Loads

OS:Node,
  {8fa5f180-218b-46df-969f-1d3df4b55a4a}, !- Handle
  Node 1,                                 !- Name
  {d07f9b21-ae06-4aaa-925c-59ec27ea2944}, !- Inlet Port
  ;                                       !- Outlet Port

OS:Connection,
  {d07f9b21-ae06-4aaa-925c-59ec27ea2944}, !- Handle
  {0b87c37b-e104-4c5a-babe-fec6862ca18b}, !- Name
  {c98f2d43-29c7-4f39-9566-f21f952cc52b}, !- Source Object
  11,                                     !- Outlet Port
  {8fa5f180-218b-46df-969f-1d3df4b55a4a}, !- Target Object
  2;                                      !- Inlet Port

OS:PortList,
  {7d77c5cb-e3a8-4e8f-9ab6-b799c88c1690}, !- Handle
  Port List 1,                            !- Name
  {c98f2d43-29c7-4f39-9566-f21f952cc52b}; !- HVAC Component

OS:PortList,
  {373bd5a5-6633-4609-bbbb-8e26a44af3b0}, !- Handle
  Port List 2,                            !- Name
  {c98f2d43-29c7-4f39-9566-f21f952cc52b}; !- HVAC Component

OS:Sizing:Zone,
  {1732cff3-8981-431f-a372-5936b5e7e6c0}, !- Handle
  {c98f2d43-29c7-4f39-9566-f21f952cc52b}, !- Zone or ZoneList Name
  SupplyAirTemperature,                   !- Zone Cooling Design Supply Air Temperature Input Method
  14,                                     !- Zone Cooling Design Supply Air Temperature {C}
  11.11,                                  !- Zone Cooling Design Supply Air Temperature Difference {deltaC}
  SupplyAirTemperature,                   !- Zone Heating Design Supply Air Temperature Input Method
  40,                                     !- Zone Heating Design Supply Air Temperature {C}
  11.11,                                  !- Zone Heating Design Supply Air Temperature Difference {deltaC}
  0.0085,                                 !- Zone Cooling Design Supply Air Humidity Ratio {kg-H2O/kg-air}
  0.008,                                  !- Zone Heating Design Supply Air Humidity Ratio {kg-H2O/kg-air}
  ,                                       !- Zone Heating Sizing Factor
  ,                                       !- Zone Cooling Sizing Factor
  DesignDay,                              !- Cooling Design Air Flow Method
  ,                                       !- Cooling Design Air Flow Rate {m3/s}
  ,                                       !- Cooling Minimum Air Flow per Zone Floor Area {m3/s-m2}
  ,                                       !- Cooling Minimum Air Flow {m3/s}
  ,                                       !- Cooling Minimum Air Flow Fraction
  DesignDay,                              !- Heating Design Air Flow Method
  ,                                       !- Heating Design Air Flow Rate {m3/s}
  ,                                       !- Heating Maximum Air Flow per Zone Floor Area {m3/s-m2}
  ,                                       !- Heating Maximum Air Flow {m3/s}
  ,                                       !- Heating Maximum Air Flow Fraction
  ,                                       !- Design Zone Air Distribution Effectiveness in Cooling Mode
  ,                                       !- Design Zone Air Distribution Effectiveness in Heating Mode
  No,                                     !- Account for Dedicated Outdoor Air System
  NeutralSupplyAir,                       !- Dedicated Outdoor Air System Control Strategy
  autosize,                               !- Dedicated Outdoor Air Low Setpoint Temperature for Design {C}
  autosize;                               !- Dedicated Outdoor Air High Setpoint Temperature for Design {C}

OS:ZoneHVAC:EquipmentList,
  {c5184646-af0f-48f4-a194-5b5cd6e24a1e}, !- Handle
  Zone HVAC Equipment List 1,             !- Name
  {c98f2d43-29c7-4f39-9566-f21f952cc52b}; !- Thermal Zone

OS:Space,
  {db45b11a-8e99-429e-9147-547c5d583dc0}, !- Handle
  living space,                           !- Name
  ,                                       !- Space Type Name
  ,                                       !- Default Construction Set Name
  ,                                       !- Default Schedule Set Name
  -0,                                     !- Direction of Relative North {deg}
  0,                                      !- X Origin {m}
  0,                                      !- Y Origin {m}
  0,                                      !- Z Origin {m}
  ,                                       !- Building Story Name
  {c98f2d43-29c7-4f39-9566-f21f952cc52b}, !- Thermal Zone Name
  ,                                       !- Part of Total Floor Area
  ,                                       !- Design Specification Outdoor Air Object Name
  {99b457e8-29f7-4c71-be09-d50d07caf806}; !- Building Unit Name

OS:Surface,
  {3dcfe3a2-b3cd-4bb4-bafc-7076a06f7e8b}, !- Handle
  Surface 1,                              !- Name
  Floor,                                  !- Surface Type
  ,                                       !- Construction Name
  {db45b11a-8e99-429e-9147-547c5d583dc0}, !- Space Name
  Ground,                                 !- Outside Boundary Condition
  ,                                       !- Outside Boundary Condition Object
  NoSun,                                  !- Sun Exposure
  NoWind,                                 !- Wind Exposure
  ,                                       !- View Factor to Ground
  ,                                       !- Number of Vertices
  0, 0, 0,                                !- X,Y,Z Vertex 1 {m}
  0, 5.56486118425249, 0,                 !- X,Y,Z Vertex 2 {m}
  11.129722368505, 5.56486118425249, 0,   !- X,Y,Z Vertex 3 {m}
  11.129722368505, 0, 0;                  !- X,Y,Z Vertex 4 {m}

OS:Surface,
  {9423ce1b-7eee-4918-b4c3-2a3e66589dd1}, !- Handle
  Surface 2,                              !- Name
  Wall,                                   !- Surface Type
  {387b7a1d-2e29-409f-8611-0d80da28c46f}, !- Construction Name
  {db45b11a-8e99-429e-9147-547c5d583dc0}, !- Space Name
  Outdoors,                               !- Outside Boundary Condition
  ,                                       !- Outside Boundary Condition Object
  SunExposed,                             !- Sun Exposure
  WindExposed,                            !- Wind Exposure
  ,                                       !- View Factor to Ground
  ,                                       !- Number of Vertices
  0, 5.56486118425249, 2.4384,            !- X,Y,Z Vertex 1 {m}
  0, 5.56486118425249, 0,                 !- X,Y,Z Vertex 2 {m}
  0, 0, 0,                                !- X,Y,Z Vertex 3 {m}
  0, 0, 2.4384;                           !- X,Y,Z Vertex 4 {m}

OS:Surface,
  {0a58a948-37c6-46bc-8ad1-5a0c662472ac}, !- Handle
  Surface 3,                              !- Name
  Wall,                                   !- Surface Type
  {387b7a1d-2e29-409f-8611-0d80da28c46f}, !- Construction Name
  {db45b11a-8e99-429e-9147-547c5d583dc0}, !- Space Name
  Outdoors,                               !- Outside Boundary Condition
  ,                                       !- Outside Boundary Condition Object
  SunExposed,                             !- Sun Exposure
  WindExposed,                            !- Wind Exposure
  ,                                       !- View Factor to Ground
  ,                                       !- Number of Vertices
  11.129722368505, 5.56486118425249, 2.4384, !- X,Y,Z Vertex 1 {m}
  11.129722368505, 5.56486118425249, 0,   !- X,Y,Z Vertex 2 {m}
  0, 5.56486118425249, 0,                 !- X,Y,Z Vertex 3 {m}
  0, 5.56486118425249, 2.4384;            !- X,Y,Z Vertex 4 {m}

OS:Surface,
  {e121ee9a-ed7f-4d50-910b-dbdeb32f656b}, !- Handle
  Surface 4,                              !- Name
  Wall,                                   !- Surface Type
  {387b7a1d-2e29-409f-8611-0d80da28c46f}, !- Construction Name
  {db45b11a-8e99-429e-9147-547c5d583dc0}, !- Space Name
  Outdoors,                               !- Outside Boundary Condition
  ,                                       !- Outside Boundary Condition Object
  SunExposed,                             !- Sun Exposure
  WindExposed,                            !- Wind Exposure
  ,                                       !- View Factor to Ground
  ,                                       !- Number of Vertices
  11.129722368505, 0, 2.4384,             !- X,Y,Z Vertex 1 {m}
  11.129722368505, 0, 0,                  !- X,Y,Z Vertex 2 {m}
  11.129722368505, 5.56486118425249, 0,   !- X,Y,Z Vertex 3 {m}
  11.129722368505, 5.56486118425249, 2.4384; !- X,Y,Z Vertex 4 {m}

OS:Surface,
  {fc31afae-3cce-45a7-93a0-a213c3c45154}, !- Handle
  Surface 5,                              !- Name
  Wall,                                   !- Surface Type
  {387b7a1d-2e29-409f-8611-0d80da28c46f}, !- Construction Name
  {db45b11a-8e99-429e-9147-547c5d583dc0}, !- Space Name
  Outdoors,                               !- Outside Boundary Condition
  ,                                       !- Outside Boundary Condition Object
  SunExposed,                             !- Sun Exposure
  WindExposed,                            !- Wind Exposure
  ,                                       !- View Factor to Ground
  ,                                       !- Number of Vertices
  0, 0, 2.4384,                           !- X,Y,Z Vertex 1 {m}
  0, 0, 0,                                !- X,Y,Z Vertex 2 {m}
  11.129722368505, 0, 0,                  !- X,Y,Z Vertex 3 {m}
  11.129722368505, 0, 2.4384;             !- X,Y,Z Vertex 4 {m}

OS:Surface,
  {fe66e2b2-cfd4-4923-8ade-aefb66168a22}, !- Handle
  Surface 6,                              !- Name
  RoofCeiling,                            !- Surface Type
  ,                                       !- Construction Name
  {db45b11a-8e99-429e-9147-547c5d583dc0}, !- Space Name
  Surface,                                !- Outside Boundary Condition
  {ff44466a-ebc0-4b44-9a68-f3328d81deda}, !- Outside Boundary Condition Object
  NoSun,                                  !- Sun Exposure
  NoWind,                                 !- Wind Exposure
  ,                                       !- View Factor to Ground
  ,                                       !- Number of Vertices
  11.129722368505, 0, 2.4384,             !- X,Y,Z Vertex 1 {m}
  11.129722368505, 5.56486118425249, 2.4384, !- X,Y,Z Vertex 2 {m}
  0, 5.56486118425249, 2.4384,            !- X,Y,Z Vertex 3 {m}
  0, 0, 2.4384;                           !- X,Y,Z Vertex 4 {m}

OS:Space,
  {daff282f-bc57-4e66-b2a3-a1dbc886bc33}, !- Handle
  living space|story 2,                   !- Name
  ,                                       !- Space Type Name
  ,                                       !- Default Construction Set Name
  ,                                       !- Default Schedule Set Name
  -0,                                     !- Direction of Relative North {deg}
  0,                                      !- X Origin {m}
  0,                                      !- Y Origin {m}
  2.4384,                                 !- Z Origin {m}
  ,                                       !- Building Story Name
  {c98f2d43-29c7-4f39-9566-f21f952cc52b}, !- Thermal Zone Name
  ,                                       !- Part of Total Floor Area
  ,                                       !- Design Specification Outdoor Air Object Name
  {99b457e8-29f7-4c71-be09-d50d07caf806}; !- Building Unit Name

OS:Surface,
  {ff44466a-ebc0-4b44-9a68-f3328d81deda}, !- Handle
  Surface 7,                              !- Name
  Floor,                                  !- Surface Type
  ,                                       !- Construction Name
  {daff282f-bc57-4e66-b2a3-a1dbc886bc33}, !- Space Name
  Surface,                                !- Outside Boundary Condition
  {fe66e2b2-cfd4-4923-8ade-aefb66168a22}, !- Outside Boundary Condition Object
  NoSun,                                  !- Sun Exposure
  NoWind,                                 !- Wind Exposure
  ,                                       !- View Factor to Ground
  ,                                       !- Number of Vertices
  0, 0, 0,                                !- X,Y,Z Vertex 1 {m}
  0, 5.56486118425249, 0,                 !- X,Y,Z Vertex 2 {m}
  11.129722368505, 5.56486118425249, 0,   !- X,Y,Z Vertex 3 {m}
  11.129722368505, 0, 0;                  !- X,Y,Z Vertex 4 {m}

OS:Surface,
  {950461a0-d4a2-430a-8935-5fcd622bd3a8}, !- Handle
  Surface 8,                              !- Name
  Wall,                                   !- Surface Type
  {387b7a1d-2e29-409f-8611-0d80da28c46f}, !- Construction Name
  {daff282f-bc57-4e66-b2a3-a1dbc886bc33}, !- Space Name
  Outdoors,                               !- Outside Boundary Condition
  ,                                       !- Outside Boundary Condition Object
  SunExposed,                             !- Sun Exposure
  WindExposed,                            !- Wind Exposure
  ,                                       !- View Factor to Ground
  ,                                       !- Number of Vertices
  0, 5.56486118425249, 2.4384,            !- X,Y,Z Vertex 1 {m}
  0, 5.56486118425249, 0,                 !- X,Y,Z Vertex 2 {m}
  0, 0, 0,                                !- X,Y,Z Vertex 3 {m}
  0, 0, 2.4384;                           !- X,Y,Z Vertex 4 {m}

OS:Surface,
  {3f0b67f7-f62a-4359-b0c0-1444b28eb92b}, !- Handle
  Surface 9,                              !- Name
  Wall,                                   !- Surface Type
  {387b7a1d-2e29-409f-8611-0d80da28c46f}, !- Construction Name
  {daff282f-bc57-4e66-b2a3-a1dbc886bc33}, !- Space Name
  Outdoors,                               !- Outside Boundary Condition
  ,                                       !- Outside Boundary Condition Object
  SunExposed,                             !- Sun Exposure
  WindExposed,                            !- Wind Exposure
  ,                                       !- View Factor to Ground
  ,                                       !- Number of Vertices
  11.129722368505, 5.56486118425249, 2.4384, !- X,Y,Z Vertex 1 {m}
  11.129722368505, 5.56486118425249, 0,   !- X,Y,Z Vertex 2 {m}
  0, 5.56486118425249, 0,                 !- X,Y,Z Vertex 3 {m}
  0, 5.56486118425249, 2.4384;            !- X,Y,Z Vertex 4 {m}

OS:Surface,
  {54bc5202-51c4-4218-ab01-87a62d007792}, !- Handle
  Surface 10,                             !- Name
  Wall,                                   !- Surface Type
  {387b7a1d-2e29-409f-8611-0d80da28c46f}, !- Construction Name
  {daff282f-bc57-4e66-b2a3-a1dbc886bc33}, !- Space Name
  Outdoors,                               !- Outside Boundary Condition
  ,                                       !- Outside Boundary Condition Object
  SunExposed,                             !- Sun Exposure
  WindExposed,                            !- Wind Exposure
  ,                                       !- View Factor to Ground
  ,                                       !- Number of Vertices
  11.129722368505, 0, 2.4384,             !- X,Y,Z Vertex 1 {m}
  11.129722368505, 0, 0,                  !- X,Y,Z Vertex 2 {m}
  11.129722368505, 5.56486118425249, 0,   !- X,Y,Z Vertex 3 {m}
  11.129722368505, 5.56486118425249, 2.4384; !- X,Y,Z Vertex 4 {m}

OS:Surface,
  {1f586bd5-8d28-4652-9501-b63633ca18f0}, !- Handle
  Surface 11,                             !- Name
  Wall,                                   !- Surface Type
  {387b7a1d-2e29-409f-8611-0d80da28c46f}, !- Construction Name
  {daff282f-bc57-4e66-b2a3-a1dbc886bc33}, !- Space Name
  Outdoors,                               !- Outside Boundary Condition
  ,                                       !- Outside Boundary Condition Object
  SunExposed,                             !- Sun Exposure
  WindExposed,                            !- Wind Exposure
  ,                                       !- View Factor to Ground
  ,                                       !- Number of Vertices
  0, 0, 2.4384,                           !- X,Y,Z Vertex 1 {m}
  0, 0, 0,                                !- X,Y,Z Vertex 2 {m}
  11.129722368505, 0, 0,                  !- X,Y,Z Vertex 3 {m}
  11.129722368505, 0, 2.4384;             !- X,Y,Z Vertex 4 {m}

OS:Surface,
  {8336e4ec-ad35-4f9c-bfbc-9afeffed5382}, !- Handle
  Surface 12,                             !- Name
  RoofCeiling,                            !- Surface Type
  ,                                       !- Construction Name
  {daff282f-bc57-4e66-b2a3-a1dbc886bc33}, !- Space Name
  Surface,                                !- Outside Boundary Condition
  {deef749d-079c-4b4a-ad34-a536121bdb7b}, !- Outside Boundary Condition Object
  NoSun,                                  !- Sun Exposure
  NoWind,                                 !- Wind Exposure
  ,                                       !- View Factor to Ground
  ,                                       !- Number of Vertices
  11.129722368505, 0, 2.4384,             !- X,Y,Z Vertex 1 {m}
  11.129722368505, 5.56486118425249, 2.4384, !- X,Y,Z Vertex 2 {m}
  0, 5.56486118425249, 2.4384,            !- X,Y,Z Vertex 3 {m}
  0, 0, 2.4384;                           !- X,Y,Z Vertex 4 {m}

OS:Surface,
  {deef749d-079c-4b4a-ad34-a536121bdb7b}, !- Handle
  Surface 13,                             !- Name
  Floor,                                  !- Surface Type
  ,                                       !- Construction Name
  {c7b68726-283e-4f9f-b810-ca05fc3dcaab}, !- Space Name
  Surface,                                !- Outside Boundary Condition
  {8336e4ec-ad35-4f9c-bfbc-9afeffed5382}, !- Outside Boundary Condition Object
  NoSun,                                  !- Sun Exposure
  NoWind,                                 !- Wind Exposure
  ,                                       !- View Factor to Ground
  ,                                       !- Number of Vertices
  0, 5.56486118425249, 0,                 !- X,Y,Z Vertex 1 {m}
  11.129722368505, 5.56486118425249, 0,   !- X,Y,Z Vertex 2 {m}
  11.129722368505, 0, 0,                  !- X,Y,Z Vertex 3 {m}
  0, 0, 0;                                !- X,Y,Z Vertex 4 {m}

OS:Surface,
  {76017cc4-fc5c-465b-8852-276f35260a74}, !- Handle
  Surface 14,                             !- Name
  RoofCeiling,                            !- Surface Type
  ,                                       !- Construction Name
  {c7b68726-283e-4f9f-b810-ca05fc3dcaab}, !- Space Name
  Outdoors,                               !- Outside Boundary Condition
  ,                                       !- Outside Boundary Condition Object
  SunExposed,                             !- Sun Exposure
  WindExposed,                            !- Wind Exposure
  ,                                       !- View Factor to Ground
  ,                                       !- Number of Vertices
  11.129722368505, 2.78243059212624, 1.39121529606312, !- X,Y,Z Vertex 1 {m}
  0, 2.78243059212624, 1.39121529606312,  !- X,Y,Z Vertex 2 {m}
  0, 0, 0,                                !- X,Y,Z Vertex 3 {m}
  11.129722368505, 0, 0;                  !- X,Y,Z Vertex 4 {m}

OS:Surface,
  {db1d6c3f-4c91-4b39-98da-96caccfdafd4}, !- Handle
  Surface 15,                             !- Name
  RoofCeiling,                            !- Surface Type
  ,                                       !- Construction Name
  {c7b68726-283e-4f9f-b810-ca05fc3dcaab}, !- Space Name
  Outdoors,                               !- Outside Boundary Condition
  ,                                       !- Outside Boundary Condition Object
  SunExposed,                             !- Sun Exposure
  WindExposed,                            !- Wind Exposure
  ,                                       !- View Factor to Ground
  ,                                       !- Number of Vertices
  0, 2.78243059212624, 1.39121529606312,  !- X,Y,Z Vertex 1 {m}
  11.129722368505, 2.78243059212624, 1.39121529606312, !- X,Y,Z Vertex 2 {m}
  11.129722368505, 5.56486118425249, 0,   !- X,Y,Z Vertex 3 {m}
  0, 5.56486118425249, 0;                 !- X,Y,Z Vertex 4 {m}

OS:Surface,
  {fac23085-0f9a-4ba1-a37d-9981e10a6294}, !- Handle
  Surface 16,                             !- Name
  Wall,                                   !- Surface Type
  {387b7a1d-2e29-409f-8611-0d80da28c46f}, !- Construction Name
  {c7b68726-283e-4f9f-b810-ca05fc3dcaab}, !- Space Name
  Outdoors,                               !- Outside Boundary Condition
  ,                                       !- Outside Boundary Condition Object
  SunExposed,                             !- Sun Exposure
  WindExposed,                            !- Wind Exposure
  ,                                       !- View Factor to Ground
  ,                                       !- Number of Vertices
  0, 2.78243059212624, 1.39121529606312,  !- X,Y,Z Vertex 1 {m}
  0, 5.56486118425249, 0,                 !- X,Y,Z Vertex 2 {m}
  0, 0, 0;                                !- X,Y,Z Vertex 3 {m}

OS:Surface,
  {5b1ef950-8271-4624-ae41-d2d292f9b2b2}, !- Handle
  Surface 17,                             !- Name
  Wall,                                   !- Surface Type
  {387b7a1d-2e29-409f-8611-0d80da28c46f}, !- Construction Name
  {c7b68726-283e-4f9f-b810-ca05fc3dcaab}, !- Space Name
  Outdoors,                               !- Outside Boundary Condition
  ,                                       !- Outside Boundary Condition Object
  SunExposed,                             !- Sun Exposure
  WindExposed,                            !- Wind Exposure
  ,                                       !- View Factor to Ground
  ,                                       !- Number of Vertices
  11.129722368505, 2.78243059212624, 1.39121529606312, !- X,Y,Z Vertex 1 {m}
  11.129722368505, 0, 0,                  !- X,Y,Z Vertex 2 {m}
  11.129722368505, 5.56486118425249, 0;   !- X,Y,Z Vertex 3 {m}

OS:Space,
  {c7b68726-283e-4f9f-b810-ca05fc3dcaab}, !- Handle
  finished attic space,                   !- Name
  ,                                       !- Space Type Name
  ,                                       !- Default Construction Set Name
  ,                                       !- Default Schedule Set Name
  -0,                                     !- Direction of Relative North {deg}
  0,                                      !- X Origin {m}
  0,                                      !- Y Origin {m}
  4.8768,                                 !- Z Origin {m}
  ,                                       !- Building Story Name
  {c98f2d43-29c7-4f39-9566-f21f952cc52b}, !- Thermal Zone Name
  ,                                       !- Part of Total Floor Area
  ,                                       !- Design Specification Outdoor Air Object Name
  {99b457e8-29f7-4c71-be09-d50d07caf806}; !- Building Unit Name

OS:BuildingUnit,
  {99b457e8-29f7-4c71-be09-d50d07caf806}, !- Handle
  unit 1,                                 !- Name
  ,                                       !- Rendering Color
  Residential,                            !- Building Unit Type
  SizingInfoWallType|{fac23085-0f9a-4ba1-a37d-9981e10a6294}, !- Building Unit Feature Name 1
  String,                                 !- Building Unit Feature Data Type 1
  WoodStud,                               !- Building Unit Feature Value 1
  SizingInfoWoodStudWallCavityRvalue|{fac23085-0f9a-4ba1-a37d-9981e10a6294}, !- Building Unit Feature Name 2
  Double,                                 !- Building Unit Feature Data Type 2
  13,                                     !- Building Unit Feature Value 2
  SizingInfoWallType|{5b1ef950-8271-4624-ae41-d2d292f9b2b2}, !- Building Unit Feature Name 3
  String,                                 !- Building Unit Feature Data Type 3
  WoodStud,                               !- Building Unit Feature Value 3
  SizingInfoWoodStudWallCavityRvalue|{5b1ef950-8271-4624-ae41-d2d292f9b2b2}, !- Building Unit Feature Name 4
  Double,                                 !- Building Unit Feature Data Type 4
  13,                                     !- Building Unit Feature Value 4
  SizingInfoWallType|{54bc5202-51c4-4218-ab01-87a62d007792}, !- Building Unit Feature Name 5
  String,                                 !- Building Unit Feature Data Type 5
  WoodStud,                               !- Building Unit Feature Value 5
  SizingInfoWoodStudWallCavityRvalue|{54bc5202-51c4-4218-ab01-87a62d007792}, !- Building Unit Feature Name 6
  Double,                                 !- Building Unit Feature Data Type 6
  13,                                     !- Building Unit Feature Value 6
  SizingInfoWallType|{1f586bd5-8d28-4652-9501-b63633ca18f0}, !- Building Unit Feature Name 7
  String,                                 !- Building Unit Feature Data Type 7
  WoodStud,                               !- Building Unit Feature Value 7
  SizingInfoWoodStudWallCavityRvalue|{1f586bd5-8d28-4652-9501-b63633ca18f0}, !- Building Unit Feature Name 8