!- NOTE: Auto-generated from /test/osw_files/SFD_2000sqft_2story_SL_FA_AllLayersButExteriorFinish.osw

OS:Version,
  {88d2b7f0-c75d-4ac4-a1d8-06f45858d099}, !- Handle
  2.1.1;                                  !- Version Identifier

OS:Building,
  {bf305633-c5a1-4881-9edf-ca5e1a8e1274}, !- Handle
  Building,                               !- Name
  ,                                       !- Building Sector Type
  ,                                       !- North Axis {deg}
  ,                                       !- Nominal Floor to Floor Height {m}
  ,                                       !- Space Type Name
  ,                                       !- Default Construction Set Name
  ,                                       !- Default Schedule Set Name
  3,                                      !- Standards Number of Stories
  3,                                      !- Standards Number of Above Ground Stories
  singlefamilydetached,                   !- Standards Building Type
  1;                                      !- Standards Number of Living Units

OS:YearDescription,
  {513d8dda-86cb-442a-b01c-1f7f0e0ac70e}; !- Handle

OS:SimulationControl,
  {2c487a4c-bac9-4ac5-b669-1e49d9da7c2b}, !- Handle
  ,                                       !- Do Zone Sizing Calculation
  ,                                       !- Do System Sizing Calculation
  ,                                       !- Do Plant Sizing Calculation
  No,                                     !- Run Simulation for Sizing Periods
  ;                                       !- Run Simulation for Weather File Run Periods

OS:Timestep,
  {4ebc9f1e-4707-402e-9844-67eb1ffbd522}, !- Handle
  6;                                      !- Number of Timesteps per Hour

OS:RunPeriod,
  {28df894d-6af9-4fb8-8f56-df1753344aa3}, !- Handle
  Run Period,                             !- Name
  1,                                      !- Begin Month
  1,                                      !- Begin Day of Month
  12,                                     !- End Month
  31,                                     !- End Day of Month
  ,                                       !- Use Weather File Holidays and Special Days
  ,                                       !- Use Weather File Daylight Saving Period
  ,                                       !- Apply Weekend Holiday Rule
  ,                                       !- Use Weather File Rain Indicators
  ,                                       !- Use Weather File Snow Indicators
  ;                                       !- Number of Times Runperiod to be Repeated

OS:Sizing:Parameters,
  {dde5af6f-7923-4600-a28a-7556673a0266}, !- Handle
  1.0,                                    !- Heating Sizing Factor
  1.0;                                    !- Cooling Sizing Factor

OS:ShadowCalculation,
  {ca758bea-4416-4626-9bba-3d8795c79bd6}, !- Handle
  20,                                     !- Calculation Frequency
  200;                                    !- Maximum Figures in Shadow Overlap Calculations

OS:SurfaceConvectionAlgorithm:Inside,
  {aaabfc36-718a-4ab0-b622-f186ebb45230}, !- Handle
  TARP;                                   !- Algorithm

OS:SurfaceConvectionAlgorithm:Outside,
  {9a0a9f6f-4bbd-4b12-a121-9492a1fcd7d6}, !- Handle
  DOE-2;                                  !- Algorithm

OS:HeatBalanceAlgorithm,
  {9d93e563-e1e0-46d7-9e39-d1c8aceb7212}, !- Handle
  ConductionTransferFunction,             !- Algorithm
  200;                                    !- Surface Temperature Upper Limit {C}

OS:ZoneCapacitanceMultiplier:ResearchSpecial,
  {6bfced16-b16f-47f6-8223-f7e267d75d19}, !- Handle
  ,                                       !- Temperature Capacity Multiplier
  15,                                     !- Humidity Capacity Multiplier
  ;                                       !- Carbon Dioxide Capacity Multiplier

OS:ThermalZone,
  {ebc8ade1-1ea2-4ffd-866f-870f48b25b75}, !- Handle
  living zone,                            !- Name
  ,                                       !- Multiplier
  ,                                       !- Ceiling Height {m}
  ,                                       !- Volume {m3}
  ,                                       !- Floor Area {m2}
  ,                                       !- Zone Inside Convection Algorithm
  ,                                       !- Zone Outside Convection Algorithm
  ,                                       !- Zone Conditioning Equipment List Name
  {1bb94f05-e701-47c4-886b-8674d6119b2f}, !- Zone Air Inlet Port List
  {0a84ec68-89b2-4395-805c-98d3fa5e2eb9}, !- Zone Air Exhaust Port List
  {a14f4d96-b923-4938-9a18-6df574e7d26c}, !- Zone Air Node Name
  ,                                       !- Zone Return Air Node Name
  ,                                       !- Primary Daylighting Control Name
  ,                                       !- Fraction of Zone Controlled by Primary Daylighting Control
  ,                                       !- Secondary Daylighting Control Name
  ,                                       !- Fraction of Zone Controlled by Secondary Daylighting Control
  ,                                       !- Illuminance Map Name
  ,                                       !- Group Rendering Name
  ,                                       !- Thermostat Name
  No;                                     !- Use Ideal Air Loads

OS:Node,
  {335eec25-af36-4106-a027-c55748dfb555}, !- Handle
  Node 1,                                 !- Name
  {a14f4d96-b923-4938-9a18-6df574e7d26c}, !- Inlet Port
  ;                                       !- Outlet Port

OS:Connection,
  {a14f4d96-b923-4938-9a18-6df574e7d26c}, !- Handle
  {f9ac6b91-57a4-4608-ad3b-8376d3569cbb}, !- Name
  {ebc8ade1-1ea2-4ffd-866f-870f48b25b75}, !- Source Object
  11,                                     !- Outlet Port
  {335eec25-af36-4106-a027-c55748dfb555}, !- Target Object
  2;                                      !- Inlet Port

OS:PortList,
  {1bb94f05-e701-47c4-886b-8674d6119b2f}, !- Handle
  Port List 1,                            !- Name
  {ebc8ade1-1ea2-4ffd-866f-870f48b25b75}; !- HVAC Component

OS:PortList,
  {0a84ec68-89b2-4395-805c-98d3fa5e2eb9}, !- Handle
  Port List 2,                            !- Name
  {ebc8ade1-1ea2-4ffd-866f-870f48b25b75}; !- HVAC Component

OS:Sizing:Zone,
  {86dfbe1d-f5b4-46aa-8318-9b4623205f43}, !- Handle
  {ebc8ade1-1ea2-4ffd-866f-870f48b25b75}, !- Zone or ZoneList Name
  SupplyAirTemperature,                   !- Zone Cooling Design Supply Air Temperature Input Method
  14,                                     !- Zone Cooling Design Supply Air Temperature {C}
  11.11,                                  !- Zone Cooling Design Supply Air Temperature Difference {deltaC}
  SupplyAirTemperature,                   !- Zone Heating Design Supply Air Temperature Input Method
  40,                                     !- Zone Heating Design Supply Air Temperature {C}
  11.11,                                  !- Zone Heating Design Supply Air Temperature Difference {deltaC}
  0.0085,                                 !- Zone Cooling Design Supply Air Humidity Ratio {kg-H2O/kg-air}
  0.008,                                  !- Zone Heating Design Supply Air Humidity Ratio {kg-H2O/kg-air}
  ,                                       !- Zone Heating Sizing Factor
  ,                                       !- Zone Cooling Sizing Factor
  DesignDay,                              !- Cooling Design Air Flow Method
  ,                                       !- Cooling Design Air Flow Rate {m3/s}
  ,                                       !- Cooling Minimum Air Flow per Zone Floor Area {m3/s-m2}
  ,                                       !- Cooling Minimum Air Flow {m3/s}
  ,                                       !- Cooling Minimum Air Flow Fraction
  DesignDay,                              !- Heating Design Air Flow Method
  ,                                       !- Heating Design Air Flow Rate {m3/s}
  ,                                       !- Heating Maximum Air Flow per Zone Floor Area {m3/s-m2}
  ,                                       !- Heating Maximum Air Flow {m3/s}
  ,                                       !- Heating Maximum Air Flow Fraction
  ,                                       !- Design Zone Air Distribution Effectiveness in Cooling Mode
  ,                                       !- Design Zone Air Distribution Effectiveness in Heating Mode
  No,                                     !- Account for Dedicated Outdoor Air System
  NeutralSupplyAir,                       !- Dedicated Outdoor Air System Control Strategy
  autosize,                               !- Dedicated Outdoor Air Low Setpoint Temperature for Design {C}
  autosize;                               !- Dedicated Outdoor Air High Setpoint Temperature for Design {C}

OS:ZoneHVAC:EquipmentList,
  {7f85779b-4d80-4c5a-ad00-a9291deb4be3}, !- Handle
  Zone HVAC Equipment List 1,             !- Name
  {ebc8ade1-1ea2-4ffd-866f-870f48b25b75}; !- Thermal Zone

OS:Space,
  {d9541878-cbad-4080-a5cf-a45c224da1de}, !- Handle
  living space,                           !- Name
  ,                                       !- Space Type Name
  ,                                       !- Default Construction Set Name
  ,                                       !- Default Schedule Set Name
  -0,                                     !- Direction of Relative North {deg}
  0,                                      !- X Origin {m}
  0,                                      !- Y Origin {m}
  0,                                      !- Z Origin {m}
  ,                                       !- Building Story Name
  {ebc8ade1-1ea2-4ffd-866f-870f48b25b75}, !- Thermal Zone Name
  ,                                       !- Part of Total Floor Area
  ,                                       !- Design Specification Outdoor Air Object Name
  {4f242afc-a8a6-4d69-a865-89ca211174d8}; !- Building Unit Name

OS:Surface,
  {390ec73f-44c8-4f06-ac7e-355c09365317}, !- Handle
  Surface 1,                              !- Name
  Floor,                                  !- Surface Type
  ,                                       !- Construction Name
  {d9541878-cbad-4080-a5cf-a45c224da1de}, !- Space Name
  Ground,                                 !- Outside Boundary Condition
  ,                                       !- Outside Boundary Condition Object
  NoSun,                                  !- Sun Exposure
  NoWind,                                 !- Wind Exposure
  ,                                       !- View Factor to Ground
  ,                                       !- Number of Vertices
  0, 0, 0,                                !- X,Y,Z Vertex 1 {m}
  0, 5.56486118425249, 0,                 !- X,Y,Z Vertex 2 {m}
  11.129722368505, 5.56486118425249, 0,   !- X,Y,Z Vertex 3 {m}
  11.129722368505, 0, 0;                  !- X,Y,Z Vertex 4 {m}

OS:Surface,
  {ba902177-9d89-4838-ac26-499ee873fa16}, !- Handle
  Surface 2,                              !- Name
  Wall,                                   !- Surface Type
  {281b685e-83dd-4ba0-926f-d60c34769a03}, !- Construction Name
  {d9541878-cbad-4080-a5cf-a45c224da1de}, !- Space Name
  Outdoors,                               !- Outside Boundary Condition
  ,                                       !- Outside Boundary Condition Object
  SunExposed,                             !- Sun Exposure
  WindExposed,                            !- Wind Exposure
  ,                                       !- View Factor to Ground
  ,                                       !- Number of Vertices
  0, 5.56486118425249, 2.4384,            !- X,Y,Z Vertex 1 {m}
  0, 5.56486118425249, 0,                 !- X,Y,Z Vertex 2 {m}
  0, 0, 0,                                !- X,Y,Z Vertex 3 {m}
  0, 0, 2.4384;                           !- X,Y,Z Vertex 4 {m}

OS:Surface,
  {1a596c55-61bb-4016-acbb-a0d8ea728dc9}, !- Handle
  Surface 3,                              !- Name
  Wall,                                   !- Surface Type
  {281b685e-83dd-4ba0-926f-d60c34769a03}, !- Construction Name
  {d9541878-cbad-4080-a5cf-a45c224da1de}, !- Space Name
  Outdoors,                               !- Outside Boundary Condition
  ,                                       !- Outside Boundary Condition Object
  SunExposed,                             !- Sun Exposure
  WindExposed,                            !- Wind Exposure
  ,                                       !- View Factor to Ground
  ,                                       !- Number of Vertices
  11.129722368505, 5.56486118425249, 2.4384, !- X,Y,Z Vertex 1 {m}
  11.129722368505, 5.56486118425249, 0,   !- X,Y,Z Vertex 2 {m}
  0, 5.56486118425249, 0,                 !- X,Y,Z Vertex 3 {m}
  0, 5.56486118425249, 2.4384;            !- X,Y,Z Vertex 4 {m}

OS:Surface,
  {6e2c3566-f760-44cd-99f7-968eec9bc0f1}, !- Handle
  Surface 4,                              !- Name
  Wall,                                   !- Surface Type
  {281b685e-83dd-4ba0-926f-d60c34769a03}, !- Construction Name
  {d9541878-cbad-4080-a5cf-a45c224da1de}, !- Space Name
  Outdoors,                               !- Outside Boundary Condition
  ,                                       !- Outside Boundary Condition Object
  SunExposed,                             !- Sun Exposure
  WindExposed,                            !- Wind Exposure
  ,                                       !- View Factor to Ground
  ,                                       !- Number of Vertices
  11.129722368505, 0, 2.4384,             !- X,Y,Z Vertex 1 {m}
  11.129722368505, 0, 0,                  !- X,Y,Z Vertex 2 {m}
  11.129722368505, 5.56486118425249, 0,   !- X,Y,Z Vertex 3 {m}
  11.129722368505, 5.56486118425249, 2.4384; !- X,Y,Z Vertex 4 {m}

OS:Surface,
  {94b83049-eee6-40ac-afb3-01a65978eaf8}, !- Handle
  Surface 5,                              !- Name
  Wall,                                   !- Surface Type
  {281b685e-83dd-4ba0-926f-d60c34769a03}, !- Construction Name
  {d9541878-cbad-4080-a5cf-a45c224da1de}, !- Space Name
  Outdoors,                               !- Outside Boundary Condition
  ,                                       !- Outside Boundary Condition Object
  SunExposed,                             !- Sun Exposure
  WindExposed,                            !- Wind Exposure
  ,                                       !- View Factor to Ground
  ,                                       !- Number of Vertices
  0, 0, 2.4384,                           !- X,Y,Z Vertex 1 {m}
  0, 0, 0,                                !- X,Y,Z Vertex 2 {m}
  11.129722368505, 0, 0,                  !- X,Y,Z Vertex 3 {m}
  11.129722368505, 0, 2.4384;             !- X,Y,Z Vertex 4 {m}

OS:Surface,
  {709885d7-3117-4741-9d4c-fc2464f7ddb7}, !- Handle
  Surface 6,                              !- Name
  RoofCeiling,                            !- Surface Type
  ,                                       !- Construction Name
  {d9541878-cbad-4080-a5cf-a45c224da1de}, !- Space Name
  Surface,                                !- Outside Boundary Condition
  {aaa324cc-9cd4-48c2-a0ca-fc73b6f5a663}, !- Outside Boundary Condition Object
  NoSun,                                  !- Sun Exposure
  NoWind,                                 !- Wind Exposure
  ,                                       !- View Factor to Ground
  ,                                       !- Number of Vertices
  11.129722368505, 0, 2.4384,             !- X,Y,Z Vertex 1 {m}
  11.129722368505, 5.56486118425249, 2.4384, !- X,Y,Z Vertex 2 {m}
  0, 5.56486118425249, 2.4384,            !- X,Y,Z Vertex 3 {m}
  0, 0, 2.4384;                           !- X,Y,Z Vertex 4 {m}

OS:Space,
  {0f5c7876-412e-4e7f-9df0-da328d4de529}, !- Handle
  living space|story 2,                   !- Name
  ,                                       !- Space Type Name
  ,                                       !- Default Construction Set Name
  ,                                       !- Default Schedule Set Name
  -0,                                     !- Direction of Relative North {deg}
  0,                                      !- X Origin {m}
  0,                                      !- Y Origin {m}
  2.4384,                                 !- Z Origin {m}
  ,                                       !- Building Story Name
  {ebc8ade1-1ea2-4ffd-866f-870f48b25b75}, !- Thermal Zone Name
  ,                                       !- Part of Total Floor Area
  ,                                       !- Design Specification Outdoor Air Object Name
  {4f242afc-a8a6-4d69-a865-89ca211174d8}; !- Building Unit Name

OS:Surface,
  {aaa324cc-9cd4-48c2-a0ca-fc73b6f5a663}, !- Handle
  Surface 7,                              !- Name
  Floor,                                  !- Surface Type
  ,                                       !- Construction Name
  {0f5c7876-412e-4e7f-9df0-da328d4de529}, !- Space Name
  Surface,                                !- Outside Boundary Condition
  {709885d7-3117-4741-9d4c-fc2464f7ddb7}, !- Outside Boundary Condition Object
  NoSun,                                  !- Sun Exposure
  NoWind,                                 !- Wind Exposure
  ,                                       !- View Factor to Ground
  ,                                       !- Number of Vertices
  0, 0, 0,                                !- X,Y,Z Vertex 1 {m}
  0, 5.56486118425249, 0,                 !- X,Y,Z Vertex 2 {m}
  11.129722368505, 5.56486118425249, 0,   !- X,Y,Z Vertex 3 {m}
  11.129722368505, 0, 0;                  !- X,Y,Z Vertex 4 {m}

OS:Surface,
  {f77d51eb-dae2-4988-8b71-91068fbcda2d}, !- Handle
  Surface 8,                              !- Name
  Wall,                                   !- Surface Type
  {281b685e-83dd-4ba0-926f-d60c34769a03}, !- Construction Name
  {0f5c7876-412e-4e7f-9df0-da328d4de529}, !- Space Name
  Outdoors,                               !- Outside Boundary Condition
  ,                                       !- Outside Boundary Condition Object
  SunExposed,                             !- Sun Exposure
  WindExposed,                            !- Wind Exposure
  ,                                       !- View Factor to Ground
  ,                                       !- Number of Vertices
  0, 5.56486118425249, 2.4384,            !- X,Y,Z Vertex 1 {m}
  0, 5.56486118425249, 0,                 !- X,Y,Z Vertex 2 {m}
  0, 0, 0,                                !- X,Y,Z Vertex 3 {m}
  0, 0, 2.4384;                           !- X,Y,Z Vertex 4 {m}

OS:Surface,
  {b6f33451-b974-4aad-b877-f674555b30c6}, !- Handle
  Surface 9,                              !- Name
  Wall,                                   !- Surface Type
  {281b685e-83dd-4ba0-926f-d60c34769a03}, !- Construction Name
  {0f5c7876-412e-4e7f-9df0-da328d4de529}, !- Space Name
  Outdoors,                               !- Outside Boundary Condition
  ,                                       !- Outside Boundary Condition Object
  SunExposed,                             !- Sun Exposure
  WindExposed,                            !- Wind Exposure
  ,                                       !- View Factor to Ground
  ,                                       !- Number of Vertices
  11.129722368505, 5.56486118425249, 2.4384, !- X,Y,Z Vertex 1 {m}
  11.129722368505, 5.56486118425249, 0,   !- X,Y,Z Vertex 2 {m}
  0, 5.56486118425249, 0,                 !- X,Y,Z Vertex 3 {m}
  0, 5.56486118425249, 2.4384;            !- X,Y,Z Vertex 4 {m}

OS:Surface,
  {95f06faa-7128-440a-ba5f-1734045db847}, !- Handle
  Surface 10,                             !- Name
  Wall,                                   !- Surface Type
  {281b685e-83dd-4ba0-926f-d60c34769a03}, !- Construction Name
  {0f5c7876-412e-4e7f-9df0-da328d4de529}, !- Space Name
  Outdoors,                               !- Outside Boundary Condition
  ,                                       !- Outside Boundary Condition Object
  SunExposed,                             !- Sun Exposure
  WindExposed,                            !- Wind Exposure
  ,                                       !- View Factor to Ground
  ,                                       !- Number of Vertices
  11.129722368505, 0, 2.4384,             !- X,Y,Z Vertex 1 {m}
  11.129722368505, 0, 0,                  !- X,Y,Z Vertex 2 {m}
  11.129722368505, 5.56486118425249, 0,   !- X,Y,Z Vertex 3 {m}
  11.129722368505, 5.56486118425249, 2.4384; !- X,Y,Z Vertex 4 {m}

OS:Surface,
  {d474f474-fdc7-4f7b-b5c6-1420bec33046}, !- Handle
  Surface 11,                             !- Name
  Wall,                                   !- Surface Type
  {281b685e-83dd-4ba0-926f-d60c34769a03}, !- Construction Name
  {0f5c7876-412e-4e7f-9df0-da328d4de529}, !- Space Name
  Outdoors,                               !- Outside Boundary Condition
  ,                                       !- Outside Boundary Condition Object
  SunExposed,                             !- Sun Exposure
  WindExposed,                            !- Wind Exposure
  ,                                       !- View Factor to Ground
  ,                                       !- Number of Vertices
  0, 0, 2.4384,                           !- X,Y,Z Vertex 1 {m}
  0, 0, 0,                                !- X,Y,Z Vertex 2 {m}
  11.129722368505, 0, 0,                  !- X,Y,Z Vertex 3 {m}
  11.129722368505, 0, 2.4384;             !- X,Y,Z Vertex 4 {m}

OS:Surface,
  {3aea6504-1dd0-4aa6-bc75-b935610b56d7}, !- Handle
  Surface 12,                             !- Name
  RoofCeiling,                            !- Surface Type
  ,                                       !- Construction Name
  {0f5c7876-412e-4e7f-9df0-da328d4de529}, !- Space Name
  Surface,                                !- Outside Boundary Condition
  {7ca9e72d-da41-4af5-995b-f792d3906115}, !- Outside Boundary Condition Object
  NoSun,                                  !- Sun Exposure
  NoWind,                                 !- Wind Exposure
  ,                                       !- View Factor to Ground
  ,                                       !- Number of Vertices
  11.129722368505, 0, 2.4384,             !- X,Y,Z Vertex 1 {m}
  11.129722368505, 5.56486118425249, 2.4384, !- X,Y,Z Vertex 2 {m}
  0, 5.56486118425249, 2.4384,            !- X,Y,Z Vertex 3 {m}
  0, 0, 2.4384;                           !- X,Y,Z Vertex 4 {m}

OS:Surface,
  {7ca9e72d-da41-4af5-995b-f792d3906115}, !- Handle
  Surface 13,                             !- Name
  Floor,                                  !- Surface Type
  ,                                       !- Construction Name
  {9d26f80f-7deb-4166-8689-d36d807990fe}, !- Space Name
  Surface,                                !- Outside Boundary Condition
  {3aea6504-1dd0-4aa6-bc75-b935610b56d7}, !- Outside Boundary Condition Object
  NoSun,                                  !- Sun Exposure
  NoWind,                                 !- Wind Exposure
  ,                                       !- View Factor to Ground
  ,                                       !- Number of Vertices
  0, 5.56486118425249, 0,                 !- X,Y,Z Vertex 1 {m}
  11.129722368505, 5.56486118425249, 0,   !- X,Y,Z Vertex 2 {m}
  11.129722368505, 0, 0,                  !- X,Y,Z Vertex 3 {m}
  0, 0, 0;                                !- X,Y,Z Vertex 4 {m}

OS:Surface,
  {220e3d44-5229-4194-a7c0-5c690029d2d1}, !- Handle
  Surface 14,                             !- Name
  RoofCeiling,                            !- Surface Type
  ,                                       !- Construction Name
  {9d26f80f-7deb-4166-8689-d36d807990fe}, !- Space Name
  Outdoors,                               !- Outside Boundary Condition
  ,                                       !- Outside Boundary Condition Object
  SunExposed,                             !- Sun Exposure
  WindExposed,                            !- Wind Exposure
  ,                                       !- View Factor to Ground
  ,                                       !- Number of Vertices
  11.129722368505, 2.78243059212624, 1.39121529606312, !- X,Y,Z Vertex 1 {m}
  0, 2.78243059212624, 1.39121529606312,  !- X,Y,Z Vertex 2 {m}
  0, 0, 0,                                !- X,Y,Z Vertex 3 {m}
  11.129722368505, 0, 0;                  !- X,Y,Z Vertex 4 {m}

OS:Surface,
  {0e891da6-0703-435e-9517-d8060f0eb80c}, !- Handle
  Surface 15,                             !- Name
  RoofCeiling,                            !- Surface Type
  ,                                       !- Construction Name
  {9d26f80f-7deb-4166-8689-d36d807990fe}, !- Space Name
  Outdoors,                               !- Outside Boundary Condition
  ,                                       !- Outside Boundary Condition Object
  SunExposed,                             !- Sun Exposure
  WindExposed,                            !- Wind Exposure
  ,                                       !- View Factor to Ground
  ,                                       !- Number of Vertices
  0, 2.78243059212624, 1.39121529606312,  !- X,Y,Z Vertex 1 {m}
  11.129722368505, 2.78243059212624, 1.39121529606312, !- X,Y,Z Vertex 2 {m}
  11.129722368505, 5.56486118425249, 0,   !- X,Y,Z Vertex 3 {m}
  0, 5.56486118425249, 0;                 !- X,Y,Z Vertex 4 {m}

OS:Surface,
  {e65bbe2f-f63b-4be8-91c9-5dacee092bae}, !- Handle
  Surface 16,                             !- Name
  Wall,                                   !- Surface Type
  {281b685e-83dd-4ba0-926f-d60c34769a03}, !- Construction Name
  {9d26f80f-7deb-4166-8689-d36d807990fe}, !- Space Name
  Outdoors,                               !- Outside Boundary Condition
  ,                                       !- Outside Boundary Condition Object
  SunExposed,                             !- Sun Exposure
  WindExposed,                            !- Wind Exposure
  ,                                       !- View Factor to Ground
  ,                                       !- Number of Vertices
  0, 2.78243059212624, 1.39121529606312,  !- X,Y,Z Vertex 1 {m}
  0, 5.56486118425249, 0,                 !- X,Y,Z Vertex 2 {m}
  0, 0, 0;                                !- X,Y,Z Vertex 3 {m}

OS:Surface,
  {0af04b33-477e-464f-87be-11ea151409ac}, !- Handle
  Surface 17,                             !- Name
  Wall,                                   !- Surface Type
  {281b685e-83dd-4ba0-926f-d60c34769a03}, !- Construction Name
  {9d26f80f-7deb-4166-8689-d36d807990fe}, !- Space Name
  Outdoors,                               !- Outside Boundary Condition
  ,                                       !- Outside Boundary Condition Object
  SunExposed,                             !- Sun Exposure
  WindExposed,                            !- Wind Exposure
  ,                                       !- View Factor to Ground
  ,                                       !- Number of Vertices
  11.129722368505, 2.78243059212624, 1.39121529606312, !- X,Y,Z Vertex 1 {m}
  11.129722368505, 0, 0,                  !- X,Y,Z Vertex 2 {m}
  11.129722368505, 5.56486118425249, 0;   !- X,Y,Z Vertex 3 {m}

OS:Space,
  {9d26f80f-7deb-4166-8689-d36d807990fe}, !- Handle
  finished attic space,                   !- Name
  ,                                       !- Space Type Name
  ,                                       !- Default Construction Set Name
  ,                                       !- Default Schedule Set Name
  -0,                                     !- Direction of Relative North {deg}
  0,                                      !- X Origin {m}
  0,                                      !- Y Origin {m}
  4.8768,                                 !- Z Origin {m}
  ,                                       !- Building Story Name
  {ebc8ade1-1ea2-4ffd-866f-870f48b25b75}, !- Thermal Zone Name
  ,                                       !- Part of Total Floor Area
  ,                                       !- Design Specification Outdoor Air Object Name
  {4f242afc-a8a6-4d69-a865-89ca211174d8}; !- Building Unit Name

OS:BuildingUnit,
  {4f242afc-a8a6-4d69-a865-89ca211174d8}, !- Handle
  unit 1,                                 !- Name
  ,                                       !- Rendering Color
  Residential,                            !- Building Unit Type
  SizingInfoWallType|{d474f474-fdc7-4f7b-b5c6-1420bec33046}, !- Building Unit Feature Name 1
  String,                                 !- Building Unit Feature Data Type 1
  WoodStud,                               !- Building Unit Feature Value 1
  SizingInfoStudWallCavityRvalue|{d474f474-fdc7-4f7b-b5c6-1420bec33046}, !- Building Unit Feature Name 2
  Double,                                 !- Building Unit Feature Data Type 2
  13,                                     !- Building Unit Feature Value 2
  SizingInfoWallType|{f77d51eb-dae2-4988-8b71-91068fbcda2d}, !- Building Unit Feature Name 3
  String,                                 !- Building Unit Feature Data Type 3
  WoodStud,                               !- Building Unit Feature Value 3
  SizingInfoStudWallCavityRvalue|{f77d51eb-dae2-4988-8b71-91068fbcda2d}, !- Building Unit Feature Name 4
  Double,                                 !- Building Unit Feature Data Type 4
  13,                                     !- Building Unit Feature Value 4
  SizingInfoWallType|{b6f33451-b974-4aad-b877-f674555b30c6}, !- Building Unit Feature Name 5
  String,                                 !- Building Unit Feature Data Type 5
  WoodStud,                               !- Building Unit Feature Value 5
  SizingInfoStudWallCavityRvalue|{b6f33451-b974-4aad-b877-f674555b30c6}, !- Building Unit Feature Name 6
  Double,                                 !- Building Unit Feature Data Type 6
  13,                                     !- Building Unit Feature Value 6
  SizingInfoWallType|{95f06faa-7128-440a-ba5f-1734045db847}, !- Building Unit Feature Name 7
  String,                                 !- Building Unit Feature Data Type 7
  WoodStud,                               !- Building Unit Feature Value 7
  SizingInfoStudWallCavityRvalue|{95f06faa-7128-440a-ba5f-1734045db847}, !- Building Unit Feature Name 8
  Double,                                 !- Building Unit Feature Data Type 8