!- NOTE: Auto-generated from /test/osw_files/SFD_2000sqft_2story_SL_UA_AllLayersButExteriorFinish_CeilingIns.osw

OS:Version,
  {ad7cf000-4dfc-433e-9a1b-ff9f0a7814c0}, !- Handle
  2.0.5;                                  !- Version Identifier

OS:Building,
  {bf305633-c5a1-4881-9edf-ca5e1a8e1274}, !- Handle
  Building,                               !- Name
  ,                                       !- Building Sector Type
  ,                                       !- North Axis {deg}
  ,                                       !- Nominal Floor to Floor Height {m}
  ,                                       !- Space Type Name
  ,                                       !- Default Construction Set Name
  ,                                       !- Default Schedule Set Name
  2,                                      !- Standards Number of Stories
  2,                                      !- Standards Number of Above Ground Stories
  singlefamilydetached,                   !- Standards Building Type
  1;                                      !- Standards Number of Living Units

OS:YearDescription,
  {513d8dda-86cb-442a-b01c-1f7f0e0ac70e}; !- Handle

OS:SimulationControl,
  {2c487a4c-bac9-4ac5-b669-1e49d9da7c2b}, !- Handle
  ,                                       !- Do Zone Sizing Calculation
  ,                                       !- Do System Sizing Calculation
  ,                                       !- Do Plant Sizing Calculation
  No,                                     !- Run Simulation for Sizing Periods
  ;                                       !- Run Simulation for Weather File Run Periods

OS:Timestep,
  {4ebc9f1e-4707-402e-9844-67eb1ffbd522}, !- Handle
  6;                                      !- Number of Timesteps per Hour

OS:RunPeriod,
  {28df894d-6af9-4fb8-8f56-df1753344aa3}, !- Handle
  Run Period,                             !- Name
  1,                                      !- Begin Month
  1,                                      !- Begin Day of Month
  12,                                     !- End Month
  31,                                     !- End Day of Month
  ,                                       !- Use Weather File Holidays and Special Days
  ,                                       !- Use Weather File Daylight Saving Period
  ,                                       !- Apply Weekend Holiday Rule
  ,                                       !- Use Weather File Rain Indicators
  ,                                       !- Use Weather File Snow Indicators
  ;                                       !- Number of Times Runperiod to be Repeated

OS:Sizing:Parameters,
  {dde5af6f-7923-4600-a28a-7556673a0266}, !- Handle
  1.0,                                    !- Heating Sizing Factor
  1.0;                                    !- Cooling Sizing Factor

OS:ShadowCalculation,
  {ca758bea-4416-4626-9bba-3d8795c79bd6}, !- Handle
  20,                                     !- Calculation Frequency
  200;                                    !- Maximum Figures in Shadow Overlap Calculations

OS:SurfaceConvectionAlgorithm:Inside,
  {aaabfc36-718a-4ab0-b622-f186ebb45230}, !- Handle
  TARP;                                   !- Algorithm

OS:SurfaceConvectionAlgorithm:Outside,
  {9a0a9f6f-4bbd-4b12-a121-9492a1fcd7d6}, !- Handle
  DOE-2;                                  !- Algorithm

OS:HeatBalanceAlgorithm,
  {9d93e563-e1e0-46d7-9e39-d1c8aceb7212}, !- Handle
  ConductionTransferFunction,             !- Algorithm
  200;                                    !- Surface Temperature Upper Limit {C}

OS:ZoneCapacitanceMultiplier:ResearchSpecial,
  {6bfced16-b16f-47f6-8223-f7e267d75d19}, !- Handle
  ,                                       !- Temperature Capacity Multiplier
  15,                                     !- Humidity Capacity Multiplier
  ;                                       !- Carbon Dioxide Capacity Multiplier

OS:ThermalZone,
  {6bd17cd5-f115-4391-8914-e2067f73e7b6}, !- Handle
  living zone,                            !- Name
  ,                                       !- Multiplier
  ,                                       !- Ceiling Height {m}
  ,                                       !- Volume {m3}
  ,                                       !- Floor Area {m2}
  ,                                       !- Zone Inside Convection Algorithm
  ,                                       !- Zone Outside Convection Algorithm
  ,                                       !- Zone Conditioning Equipment List Name
  {e7eb7f3c-08b4-4e19-8691-521492d70dc6}, !- Zone Air Inlet Port List
  {d42fe3a5-0358-43bb-a138-7744678f4f6b}, !- Zone Air Exhaust Port List
  {e94aaa70-e361-47b4-b9f5-91a43bb28e8f}, !- Zone Air Node Name
  ,                                       !- Zone Return Air Node Name
  ,                                       !- Primary Daylighting Control Name
  ,                                       !- Fraction of Zone Controlled by Primary Daylighting Control
  ,                                       !- Secondary Daylighting Control Name
  ,                                       !- Fraction of Zone Controlled by Secondary Daylighting Control
  ,                                       !- Illuminance Map Name
  ,                                       !- Group Rendering Name
  ,                                       !- Thermostat Name
  No;                                     !- Use Ideal Air Loads

OS:Node,
  {78687966-cc70-43e1-bf3d-e864b407e060}, !- Handle
  Node 1,                                 !- Name
  {e94aaa70-e361-47b4-b9f5-91a43bb28e8f}, !- Inlet Port
  ;                                       !- Outlet Port

OS:Connection,
  {e94aaa70-e361-47b4-b9f5-91a43bb28e8f}, !- Handle
  {053d9036-3a64-4222-ad83-a2b5665ab968}, !- Name
  {6bd17cd5-f115-4391-8914-e2067f73e7b6}, !- Source Object
  11,                                     !- Outlet Port
  {78687966-cc70-43e1-bf3d-e864b407e060}, !- Target Object
  2;                                      !- Inlet Port

OS:PortList,
  {e7eb7f3c-08b4-4e19-8691-521492d70dc6}, !- Handle
  Port List 1,                            !- Name
  {6bd17cd5-f115-4391-8914-e2067f73e7b6}; !- HVAC Component

OS:PortList,
  {d42fe3a5-0358-43bb-a138-7744678f4f6b}, !- Handle
  Port List 2,                            !- Name
  {6bd17cd5-f115-4391-8914-e2067f73e7b6}; !- HVAC Component

OS:Sizing:Zone,
  {9d47285b-a02d-432f-9197-12d00be73433}, !- Handle
  {6bd17cd5-f115-4391-8914-e2067f73e7b6}, !- Zone or ZoneList Name
  SupplyAirTemperature,                   !- Zone Cooling Design Supply Air Temperature Input Method
  14,                                     !- Zone Cooling Design Supply Air Temperature {C}
  11.11,                                  !- Zone Cooling Design Supply Air Temperature Difference {deltaC}
  SupplyAirTemperature,                   !- Zone Heating Design Supply Air Temperature Input Method
  40,                                     !- Zone Heating Design Supply Air Temperature {C}
  11.11,                                  !- Zone Heating Design Supply Air Temperature Difference {deltaC}
  0.0085,                                 !- Zone Cooling Design Supply Air Humidity Ratio {kg-H2O/kg-air}
  0.008,                                  !- Zone Heating Design Supply Air Humidity Ratio {kg-H2O/kg-air}
  ,                                       !- Zone Heating Sizing Factor
  ,                                       !- Zone Cooling Sizing Factor
  DesignDay,                              !- Cooling Design Air Flow Method
  ,                                       !- Cooling Design Air Flow Rate {m3/s}
  ,                                       !- Cooling Minimum Air Flow per Zone Floor Area {m3/s-m2}
  ,                                       !- Cooling Minimum Air Flow {m3/s}
  ,                                       !- Cooling Minimum Air Flow Fraction
  DesignDay,                              !- Heating Design Air Flow Method
  ,                                       !- Heating Design Air Flow Rate {m3/s}
  ,                                       !- Heating Maximum Air Flow per Zone Floor Area {m3/s-m2}
  ,                                       !- Heating Maximum Air Flow {m3/s}
  ,                                       !- Heating Maximum Air Flow Fraction
  ,                                       !- Design Zone Air Distribution Effectiveness in Cooling Mode
  ,                                       !- Design Zone Air Distribution Effectiveness in Heating Mode
  No,                                     !- Account for Dedicated Outdoor Air System
  NeutralSupplyAir,                       !- Dedicated Outdoor Air System Control Strategy
  autosize,                               !- Dedicated Outdoor Air Low Setpoint Temperature for Design {C}
  autosize;                               !- Dedicated Outdoor Air High Setpoint Temperature for Design {C}

OS:ZoneHVAC:EquipmentList,
  {ad12a4d6-8287-40e4-a66e-37a111fbf2f3}, !- Handle
  Zone HVAC Equipment List 1,             !- Name
  {6bd17cd5-f115-4391-8914-e2067f73e7b6}; !- Thermal Zone

OS:Space,
  {2934809c-412d-45d5-81ab-df28bd4cb967}, !- Handle
  living space,                           !- Name
  ,                                       !- Space Type Name
  ,                                       !- Default Construction Set Name
  ,                                       !- Default Schedule Set Name
  -0,                                     !- Direction of Relative North {deg}
  0,                                      !- X Origin {m}
  0,                                      !- Y Origin {m}
  0,                                      !- Z Origin {m}
  ,                                       !- Building Story Name
  {6bd17cd5-f115-4391-8914-e2067f73e7b6}, !- Thermal Zone Name
  ,                                       !- Part of Total Floor Area
  ,                                       !- Design Specification Outdoor Air Object Name
  {b9779740-01f6-43a7-9329-93e6bfe298d2}; !- Building Unit Name

OS:Surface,
  {cb263470-4bcc-4590-a13c-e168272bb992}, !- Handle
  Surface 1,                              !- Name
  Floor,                                  !- Surface Type
  ,                                       !- Construction Name
  {2934809c-412d-45d5-81ab-df28bd4cb967}, !- Space Name
  Ground,                                 !- Outside Boundary Condition
  ,                                       !- Outside Boundary Condition Object
  NoSun,                                  !- Sun Exposure
  NoWind,                                 !- Wind Exposure
  ,                                       !- View Factor to Ground
  ,                                       !- Number of Vertices
  0, 0, 0,                                !- X,Y,Z Vertex 1 {m}
  0, 6.81553519541936, 0,                 !- X,Y,Z Vertex 2 {m}
  13.6310703908387, 6.81553519541936, 0,  !- X,Y,Z Vertex 3 {m}
  13.6310703908387, 0, 0;                 !- X,Y,Z Vertex 4 {m}

OS:Surface,
  {727f0637-05e6-4e57-9ade-114131efba24}, !- Handle
  Surface 2,                              !- Name
  Wall,                                   !- Surface Type
  {3544529d-fbe9-4afc-a95f-8e17ce051fdf}, !- Construction Name
  {2934809c-412d-45d5-81ab-df28bd4cb967}, !- Space Name
  Outdoors,                               !- Outside Boundary Condition
  ,                                       !- Outside Boundary Condition Object
  SunExposed,                             !- Sun Exposure
  WindExposed,                            !- Wind Exposure
  ,                                       !- View Factor to Ground
  ,                                       !- Number of Vertices
  0, 6.81553519541936, 2.4384,            !- X,Y,Z Vertex 1 {m}
  0, 6.81553519541936, 0,                 !- X,Y,Z Vertex 2 {m}
  0, 0, 0,                                !- X,Y,Z Vertex 3 {m}
  0, 0, 2.4384;                           !- X,Y,Z Vertex 4 {m}

OS:Surface,
  {31c7aad3-9afb-4e5f-80ec-a7bc2ca90b8a}, !- Handle
  Surface 3,                              !- Name
  Wall,                                   !- Surface Type
  {3544529d-fbe9-4afc-a95f-8e17ce051fdf}, !- Construction Name
  {2934809c-412d-45d5-81ab-df28bd4cb967}, !- Space Name
  Outdoors,                               !- Outside Boundary Condition
  ,                                       !- Outside Boundary Condition Object
  SunExposed,                             !- Sun Exposure
  WindExposed,                            !- Wind Exposure
  ,                                       !- View Factor to Ground
  ,                                       !- Number of Vertices
  13.6310703908387, 6.81553519541936, 2.4384, !- X,Y,Z Vertex 1 {m}
  13.6310703908387, 6.81553519541936, 0,  !- X,Y,Z Vertex 2 {m}
  0, 6.81553519541936, 0,                 !- X,Y,Z Vertex 3 {m}
  0, 6.81553519541936, 2.4384;            !- X,Y,Z Vertex 4 {m}

OS:Surface,
  {96601376-c063-4306-a766-e6345f3d1187}, !- Handle
  Surface 4,                              !- Name
  Wall,                                   !- Surface Type
  {3544529d-fbe9-4afc-a95f-8e17ce051fdf}, !- Construction Name
  {2934809c-412d-45d5-81ab-df28bd4cb967}, !- Space Name
  Outdoors,                               !- Outside Boundary Condition
  ,                                       !- Outside Boundary Condition Object
  SunExposed,                             !- Sun Exposure
  WindExposed,                            !- Wind Exposure
  ,                                       !- View Factor to Ground
  ,                                       !- Number of Vertices
  13.6310703908387, 0, 2.4384,            !- X,Y,Z Vertex 1 {m}
  13.6310703908387, 0, 0,                 !- X,Y,Z Vertex 2 {m}
  13.6310703908387, 6.81553519541936, 0,  !- X,Y,Z Vertex 3 {m}
  13.6310703908387, 6.81553519541936, 2.4384; !- X,Y,Z Vertex 4 {m}

OS:Surface,
  {d56dcdbb-8bd7-4c0f-8d0f-bb4f50f137de}, !- Handle
  Surface 5,                              !- Name
  Wall,                                   !- Surface Type
  {3544529d-fbe9-4afc-a95f-8e17ce051fdf}, !- Construction Name
  {2934809c-412d-45d5-81ab-df28bd4cb967}, !- Space Name
  Outdoors,                               !- Outside Boundary Condition
  ,                                       !- Outside Boundary Condition Object
  SunExposed,                             !- Sun Exposure
  WindExposed,                            !- Wind Exposure
  ,                                       !- View Factor to Ground
  ,                                       !- Number of Vertices
  0, 0, 2.4384,                           !- X,Y,Z Vertex 1 {m}
  0, 0, 0,                                !- X,Y,Z Vertex 2 {m}
  13.6310703908387, 0, 0,                 !- X,Y,Z Vertex 3 {m}
  13.6310703908387, 0, 2.4384;            !- X,Y,Z Vertex 4 {m}

OS:Surface,
  {a11e9f62-4d5c-4eba-8cb8-d00d981c02df}, !- Handle
  Surface 6,                              !- Name
  RoofCeiling,                            !- Surface Type
  {f68deb44-4752-427c-9a3b-56fc2b4d04d1}, !- Construction Name
  {2934809c-412d-45d5-81ab-df28bd4cb967}, !- Space Name
  Surface,                                !- Outside Boundary Condition
  {4a8fea0c-7097-4b4f-80c5-a9b9627b141c}, !- Outside Boundary Condition Object
  NoSun,                                  !- Sun Exposure
  NoWind,                                 !- Wind Exposure
  ,                                       !- View Factor to Ground
  ,                                       !- Number of Vertices
  13.6310703908387, 0, 2.4384,            !- X,Y,Z Vertex 1 {m}
  13.6310703908387, 6.81553519541936, 2.4384, !- X,Y,Z Vertex 2 {m}
  0, 6.81553519541936, 2.4384,            !- X,Y,Z Vertex 3 {m}
  0, 0, 2.4384;                           !- X,Y,Z Vertex 4 {m}

OS:Space,
  {56937fd5-be5f-420b-a503-6b08eb6e82ad}, !- Handle
  living space|story 2,                   !- Name
  ,                                       !- Space Type Name
  ,                                       !- Default Construction Set Name
  ,                                       !- Default Schedule Set Name
  -0,                                     !- Direction of Relative North {deg}
  0,                                      !- X Origin {m}
  0,                                      !- Y Origin {m}
  2.4384,                                 !- Z Origin {m}
  ,                                       !- Building Story Name
  {6bd17cd5-f115-4391-8914-e2067f73e7b6}, !- Thermal Zone Name
  ,                                       !- Part of Total Floor Area
  ,                                       !- Design Specification Outdoor Air Object Name
  {b9779740-01f6-43a7-9329-93e6bfe298d2}; !- Building Unit Name

OS:Surface,
  {4a8fea0c-7097-4b4f-80c5-a9b9627b141c}, !- Handle
  Surface 7,                              !- Name
  Floor,                                  !- Surface Type
  {f68deb44-4752-427c-9a3b-56fc2b4d04d1}, !- Construction Name
  {56937fd5-be5f-420b-a503-6b08eb6e82ad}, !- Space Name
  Surface,                                !- Outside Boundary Condition
  {a11e9f62-4d5c-4eba-8cb8-d00d981c02df}, !- Outside Boundary Condition Object
  NoSun,                                  !- Sun Exposure
  NoWind,                                 !- Wind Exposure
  ,                                       !- View Factor to Ground
  ,                                       !- Number of Vertices
  0, 0, 0,                                !- X,Y,Z Vertex 1 {m}
  0, 6.81553519541936, 0,                 !- X,Y,Z Vertex 2 {m}
  13.6310703908387, 6.81553519541936, 0,  !- X,Y,Z Vertex 3 {m}
  13.6310703908387, 0, 0;                 !- X,Y,Z Vertex 4 {m}

OS:Surface,
  {b7803630-609c-44b0-bfc4-e770c3db87fa}, !- Handle
  Surface 8,                              !- Name
  Wall,                                   !- Surface Type
  {3544529d-fbe9-4afc-a95f-8e17ce051fdf}, !- Construction Name
  {56937fd5-be5f-420b-a503-6b08eb6e82ad}, !- Space Name
  Outdoors,                               !- Outside Boundary Condition
  ,                                       !- Outside Boundary Condition Object
  SunExposed,                             !- Sun Exposure
  WindExposed,                            !- Wind Exposure
  ,                                       !- View Factor to Ground
  ,                                       !- Number of Vertices
  0, 6.81553519541936, 2.4384,            !- X,Y,Z Vertex 1 {m}
  0, 6.81553519541936, 0,                 !- X,Y,Z Vertex 2 {m}
  0, 0, 0,                                !- X,Y,Z Vertex 3 {m}
  0, 0, 2.4384;                           !- X,Y,Z Vertex 4 {m}

OS:Surface,
  {08602549-5a0a-4a4c-bb1d-c7f2cdd9c972}, !- Handle
  Surface 9,                              !- Name
  Wall,                                   !- Surface Type
  {3544529d-fbe9-4afc-a95f-8e17ce051fdf}, !- Construction Name
  {56937fd5-be5f-420b-a503-6b08eb6e82ad}, !- Space Name
  Outdoors,                               !- Outside Boundary Condition
  ,                                       !- Outside Boundary Condition Object
  SunExposed,                             !- Sun Exposure
  WindExposed,                            !- Wind Exposure
  ,                                       !- View Factor to Ground
  ,                                       !- Number of Vertices
  13.6310703908387, 6.81553519541936, 2.4384, !- X,Y,Z Vertex 1 {m}
  13.6310703908387, 6.81553519541936, 0,  !- X,Y,Z Vertex 2 {m}
  0, 6.81553519541936, 0,                 !- X,Y,Z Vertex 3 {m}
  0, 6.81553519541936, 2.4384;            !- X,Y,Z Vertex 4 {m}

OS:Surface,
  {a9c1ee04-6b9d-4219-b716-a37c8fc43fda}, !- Handle
  Surface 10,                             !- Name
  Wall,                                   !- Surface Type
  {3544529d-fbe9-4afc-a95f-8e17ce051fdf}, !- Construction Name
  {56937fd5-be5f-420b-a503-6b08eb6e82ad}, !- Space Name
  Outdoors,                               !- Outside Boundary Condition
  ,                                       !- Outside Boundary Condition Object
  SunExposed,                             !- Sun Exposure
  WindExposed,                            !- Wind Exposure
  ,                                       !- View Factor to Ground
  ,                                       !- Number of Vertices
  13.6310703908387, 0, 2.4384,            !- X,Y,Z Vertex 1 {m}
  13.6310703908387, 0, 0,                 !- X,Y,Z Vertex 2 {m}
  13.6310703908387, 6.81553519541936, 0,  !- X,Y,Z Vertex 3 {m}
  13.6310703908387, 6.81553519541936, 2.4384; !- X,Y,Z Vertex 4 {m}

OS:Surface,
  {8351b20f-d192-417c-b728-ffd7e75058aa}, !- Handle
  Surface 11,                             !- Name
  Wall,                                   !- Surface Type
  {3544529d-fbe9-4afc-a95f-8e17ce051fdf}, !- Construction Name
  {56937fd5-be5f-420b-a503-6b08eb6e82ad}, !- Space Name
  Outdoors,                               !- Outside Boundary Condition
  ,                                       !- Outside Boundary Condition Object
  SunExposed,                             !- Sun Exposure
  WindExposed,                            !- Wind Exposure
  ,                                       !- View Factor to Ground
  ,                                       !- Number of Vertices
  0, 0, 2.4384,                           !- X,Y,Z Vertex 1 {m}
  0, 0, 0,                                !- X,Y,Z Vertex 2 {m}
  13.6310703908387, 0, 0,                 !- X,Y,Z Vertex 3 {m}
  13.6310703908387, 0, 2.4384;            !- X,Y,Z Vertex 4 {m}

OS:Surface,
  {9aa52fc3-925c-41cb-adb4-f0e0e09a5e21}, !- Handle
  Surface 12,                             !- Name
  RoofCeiling,                            !- Surface Type
  {c2813d92-e644-4a14-a44e-b1807ec0aead}, !- Construction Name
  {56937fd5-be5f-420b-a503-6b08eb6e82ad}, !- Space Name
  Surface,                                !- Outside Boundary Condition
  {c7ee9a05-83a9-45d2-baff-532858e29ee9}, !- Outside Boundary Condition Object
  NoSun,                                  !- Sun Exposure
  NoWind,                                 !- Wind Exposure
  ,                                       !- View Factor to Ground
  ,                                       !- Number of Vertices
  13.6310703908387, 0, 2.4384,            !- X,Y,Z Vertex 1 {m}
  13.6310703908387, 6.81553519541936, 2.4384, !- X,Y,Z Vertex 2 {m}
  0, 6.81553519541936, 2.4384,            !- X,Y,Z Vertex 3 {m}
  0, 0, 2.4384;                           !- X,Y,Z Vertex 4 {m}

OS:Surface,
  {c7ee9a05-83a9-45d2-baff-532858e29ee9}, !- Handle
  Surface 13,                             !- Name
  Floor,                                  !- Surface Type
  {946c32b2-3862-4888-862d-f2fd98f59bfb}, !- Construction Name
  {66030ee6-9c7e-440c-8f3f-dbcc388bb9cf}, !- Space Name
  Surface,                                !- Outside Boundary Condition
  {9aa52fc3-925c-41cb-adb4-f0e0e09a5e21}, !- Outside Boundary Condition Object
  NoSun,                                  !- Sun Exposure
  NoWind,                                 !- Wind Exposure
  ,                                       !- View Factor to Ground
  ,                                       !- Number of Vertices
  0, 6.81553519541936, 0,                 !- X,Y,Z Vertex 1 {m}
  13.6310703908387, 6.81553519541936, 0,  !- X,Y,Z Vertex 2 {m}
  13.6310703908387, 0, 0,                 !- X,Y,Z Vertex 3 {m}
  0, 0, 0;                                !- X,Y,Z Vertex 4 {m}

OS:Surface,
  {a8393b20-4990-4365-8895-d82d73d649b1}, !- Handle
  Surface 14,                             !- Name
  RoofCeiling,                            !- Surface Type
  {243c2750-6829-409f-bbc0-ff5675986063}, !- Construction Name
  {66030ee6-9c7e-440c-8f3f-dbcc388bb9cf}, !- Space Name
  Outdoors,                               !- Outside Boundary Condition
  ,                                       !- Outside Boundary Condition Object
  SunExposed,                             !- Sun Exposure
  WindExposed,                            !- Wind Exposure
  ,                                       !- View Factor to Ground
  ,                                       !- Number of Vertices
  13.6310703908387, 3.40776759770968, 1.70388379885484, !- X,Y,Z Vertex 1 {m}
  0, 3.40776759770968, 1.70388379885484,  !- X,Y,Z Vertex 2 {m}
  0, 0, 0,                                !- X,Y,Z Vertex 3 {m}
  13.6310703908387, 0, 0;                 !- X,Y,Z Vertex 4 {m}

OS:Surface,
  {3e6d1064-8f04-4887-bb2d-1608dbaeb85d}, !- Handle
  Surface 15,                             !- Name
  RoofCeiling,                            !- Surface Type
  {243c2750-6829-409f-bbc0-ff5675986063}, !- Construction Name
  {66030ee6-9c7e-440c-8f3f-dbcc388bb9cf}, !- Space Name
  Outdoors,                               !- Outside Boundary Condition
  ,                                       !- Outside Boundary Condition Object
  SunExposed,                             !- Sun Exposure
  WindExposed,                            !- Wind Exposure
  ,                                       !- View Factor to Ground
  ,                                       !- Number of Vertices
  0, 3.40776759770968, 1.70388379885484,  !- X,Y,Z Vertex 1 {m}
  13.6310703908387, 3.40776759770968, 1.70388379885484, !- X,Y,Z Vertex 2 {m}
  13.6310703908387, 6.81553519541936, 0,  !- X,Y,Z Vertex 3 {m}
  0, 6.81553519541936, 0;                 !- X,Y,Z Vertex 4 {m}

OS:Surface,
  {dd37d4b9-8061-4b66-b337-5d5e9abf36b9}, !- Handle
  Surface 16,                             !- Name
  Wall,                                   !- Surface Type
  {ae283708-3c60-4b49-99b6-a2f2edaf2467}, !- Construction Name
  {66030ee6-9c7e-440c-8f3f-dbcc388bb9cf}, !- Space Name
  Outdoors,                               !- Outside Boundary Condition
  ,                                       !- Outside Boundary Condition Object
  SunExposed,                             !- Sun Exposure
  WindExposed,                            !- Wind Exposure
  ,                                       !- View Factor to Ground
  ,                                       !- Number of Vertices
  0, 3.40776759770968, 1.70388379885484,  !- X,Y,Z Vertex 1 {m}
  0, 6.81553519541936, 0,                 !- X,Y,Z Vertex 2 {m}
  0, 0, 0;                                !- X,Y,Z Vertex 3 {m}

OS:Surface,
  {e1581a0a-040e-4383-b4c8-a0b687d362f7}, !- Handle
  Surface 17,                             !- Name
  Wall,                                   !- Surface Type
  {ae283708-3c60-4b49-99b6-a2f2edaf2467}, !- Construction Name
  {66030ee6-9c7e-440c-8f3f-dbcc388bb9cf}, !- Space Name
  Outdoors,                               !- Outside Boundary Condition
  ,                                       !- Outside Boundary Condition Object
  SunExposed,                             !- Sun Exposure
  WindExposed,                            !- Wind Exposure
  ,                                       !- View Factor to Ground
  ,                                       !- Number of Vertices
  13.6310703908387, 3.40776759770968, 1.70388379885484, !- X,Y,Z Vertex 1 {m}
  13.6310703908387, 0, 0,                 !- X,Y,Z Vertex 2 {m}
  13.6310703908387, 6.81553519541936, 0;  !- X,Y,Z Vertex 3 {m}

OS:Space,
  {66030ee6-9c7e-440c-8f3f-dbcc388bb9cf}, !- Handle
  unfinished attic space,                 !- Name
  ,                                       !- Space Type Name
  ,                                       !- Default Construction Set Name
  ,                                       !- Default Schedule Set Name
  -0,                                     !- Direction of Relative North {deg}
  0,                                      !- X Origin {m}
  0,                                      !- Y Origin {m}
  4.8768,                                 !- Z Origin {m}
  ,                                       !- Building Story Name
  {71058dd7-d540-4111-9c75-1da4910955c9}, !- Thermal Zone Name
  ,                                       !- Part of Total Floor Area
  ,                                       !- Design Specification Outdoor Air Object Name
  {b9779740-01f6-43a7-9329-93e6bfe298d2}; !- Building Unit Name

OS:ThermalZone,
  {71058dd7-d540-4111-9c75-1da4910955c9}, !- Handle
  unfinished attic zone,                  !- Name
  ,                                       !- Multiplier
  ,                                       !- Ceiling Height {m}
  ,                                       !- Volume {m3}
  ,                                       !- Floor Area {m2}
  ,                                       !- Zone Inside Convection Algorithm
  ,                                       !- Zone Outside Convection Algorithm
  ,                                       !- Zone Conditioning Equipment List Name
  {43535d88-b090-4ce9-ae4b-a832e0fa0296}, !- Zone Air Inlet Port List
  {1a21eebc-b442-463e-aff0-1b8970542983}, !- Zone Air Exhaust Port List
  {702022d0-9643-4ddc-950e-2fa033dc5639}, !- Zone Air Node Name
  ,                                       !- Zone Return Air Node Name
  ,                                       !- Primary Daylighting Control Name
  ,                                       !- Fraction of Zone Controlled by Primary Daylighting Control
  ,                                       !- Secondary Daylighting Control Name
  ,                                       !- Fraction of Zone Controlled by Secondary Daylighting Control
  ,                                       !- Illuminance Map Name
  ,                                       !- Group Rendering Name
  ,                                       !- Thermostat Name
  No;                                     !- Use Ideal Air Loads

OS:Node,
  {30462c03-75dc-469a-a467-5ee979c9d258}, !- Handle
  Node 2,                                 !- Name
  {702022d0-9643-4ddc-950e-2fa033dc5639}, !- Inlet Port
  ;                                       !- Outlet Port

OS:Connection,
  {702022d0-9643-4ddc-950e-2fa033dc5639}, !- Handle
  {4bde5e29-4e8f-4789-a6d6-51bf702af320}, !- Name
  {71058dd7-d540-4111-9c75-1da4910955c9}, !- Source Object
  11,                                     !- Outlet Port
  {30462c03-75dc-469a-a467-5ee979c9d258}, !- Target Object
  2;                                      !- Inlet Port

OS:PortList,
  {43535d88-b090-4ce9-ae4b-a832e0fa0296}, !- Handle