
OS:Version,
  {badcca6b-37f3-4964-a107-baaed3f7734f}, !- Handle
  1.3.1;                                  !- Version Identifier

OS:Construction,
  {d1bde47b-2662-4145-9a52-e2da95289227}, !- Handle
  ExtInsFinWall,                          !- Name
  ,                                       !- Surface Rendering Name
  {d783352a-f02d-4e00-92ed-ac73ae4aaf7e}, !- Layer 1
  {0e3bf61b-29be-4a02-9660-f947a8e32cbb}, !- Layer 2
  {ec7e53fc-43f4-4c6a-8cef-2bc6ef478969}, !- Layer 3
  {17841152-45f2-4a85-b02d-bb430265afe1}; !- Layer 4

OS:Material,
  {d783352a-f02d-4e00-92ed-ac73ae4aaf7e}, !- Handle
  Exterior_Finish_Vinyl_Light,            !- Name
  Rough,                                  !- Roughness
  0.009525,                               !- Thickness {m}
  0.089435,                               !- Conductivity {W/m-K}
  177.822,                                !- Density {kg/m3}
  1046.75,                                !- Specific Heat {J/kg-K}
  0.9,                                    !- Thermal Absorptance
  0.3,                                    !- Solar Absorptance
  0.3;                                    !- Visible Absorptance

OS:Material,
  {0e3bf61b-29be-4a02-9660-f947a8e32cbb}, !- Handle
  Plywood_1_2in,                          !- Name
  Rough,                                  !- Roughness
  0.0127,                                 !- Thickness {m}
  0.1154577,                              !- Conductivity {W/m-K}
  512.64,                                 !- Density {kg/m3}
  1214.23;                                !- Specific Heat {J/kg-K}

OS:Material,
  {17841152-45f2-4a85-b02d-bb430265afe1}, !- Handle
  GypsumBoard_1_2in,                      !- Name
  Rough,                                  !- Roughness
  0.0127,                                 !- Thickness {m}
  0.1602906,                              !- Conductivity {W/m-K}
  801,                                    !- Density {kg/m3}
  837.4;                                  !- Specific Heat {J/kg-K}

OS:Material,
  {ec7e53fc-43f4-4c6a-8cef-2bc6ef478969}, !- Handle
  StudandCavity,                          !- Name
  Rough,                                  !- Roughness
  0.1397,                                 !- Thickness {m}
  0.0627120998898888,                     !- Conductivity {W/m-K}
  146.659084512211,                       !- Density {kg/m3}
  1175.52881850606;                       !- Specific Heat {J/kg-K}

