
OS:Version,
  {39def4b0-1a28-4ab2-ab39-ae1639bdfa05}, !- Handle
  1.9.0;                                  !- Version Identifier

OS:Site,
  {9deb99ca-250a-4966-b1ad-17f6220f857b}, !- Handle
  Atlanta Hartsfield Intl Ap,             !- Name
  33.63,                                  !- Latitude {deg}
  -84.43,                                 !- Longitude {deg}
  -5,                                     !- Time Zone {hr}
  308,                                    !- Elevation {m}
  Suburbs;                                !- Terrain

OS:SimulationControl,
  {ca0a71f3-c30b-4329-b01b-047fb2cfbb88}, !- Handle
  Yes,                                    !- Do Zone Sizing Calculation
  No,                                     !- Do System Sizing Calculation
  Yes,                                    !- Do Plant Sizing Calculation
  No,                                     !- Run Simulation for Sizing Periods
  Yes,                                    !- Run Simulation for Weather File Run Periods
  0.05,                                   !- Loads Convergence Tolerance Value
  0.05,                                   !- Temperature Convergence Tolerance Value {deltaC}
  FullExterior,                           !- Solar Distribution
  50;                                     !- Maximum Number of Warmup Days

OS:Construction,
  {be251664-6915-40d3-9311-8775c4963ada}, !- Handle
  RevUnfinCSInsFinFloor,                  !- Name
  {c3b39843-9449-4363-be5d-008876a7fe79}, !- Surface Rendering Name
  {11a9df3d-3540-4436-b997-981c416d345b}, !- Layer 1
  {e61ad3d7-23dd-4b0a-908d-393ac888d448}, !- Layer 2
  {6777afd0-f197-4467-aee8-0ea9967905f4}, !- Layer 3
  {9cb6e8c9-e9cc-499b-8a53-ebbd06948f10}; !- Layer 4

OS:Material,
  {11a9df3d-3540-4436-b997-981c416d345b}, !- Handle
  CarpetBareLayer,                        !- Name
  Rough,                                  !- Roughness
  0.0127,                                 !- Thickness {m}
  0.0433443509615385,                     !- Conductivity {W/m-K}
  54.468,                                 !- Density {kg/m3}
  1339.84,                                !- Specific Heat {J/kg-K}
  0.9,                                    !- Thermal Absorptance
  0.9;                                    !- Solar Absorptance

OS:Material,
  {e61ad3d7-23dd-4b0a-908d-393ac888d448}, !- Handle
  FloorMass,                              !- Name
  Rough,                                  !- Roughness
  0.015875,                               !- Thickness {m}
  0.1154577,                              !- Conductivity {W/m-K}
  544.68,                                 !- Density {kg/m3}
  1214.23,                                !- Specific Heat {J/kg-K}
  0.9,                                    !- Thermal Absorptance
  0.6;                                    !- Solar Absorptance

OS:Material,
  {6777afd0-f197-4467-aee8-0ea9967905f4}, !- Handle
  Plywood-3_4in,                          !- Name
  Rough,                                  !- Roughness
  0.01905,                                !- Thickness {m}
  0.1154577,                              !- Conductivity {W/m-K}
  512.64,                                 !- Density {kg/m3}
  1214.23;                                !- Specific Heat {J/kg-K}

OS:Material,
  {9cb6e8c9-e9cc-499b-8a53-ebbd06948f10}, !- Handle
  CrawlCeilingIns,                        !- Name
  Rough,                                  !- Roughness
  0.23495,                                !- Thickness {m}
  0.104255480780977,                      !- Conductivity {W/m-K}
  106.36479,                              !- Density {kg/m3}
  1151.68513065743;                       !- Specific Heat {J/kg-K}

OS:Construction,
  {c11fd225-0b72-4e72-88ae-cd8230398565}, !- Handle
  ExtUninsUnfinWall,                      !- Name
  {a9ac9783-ebd3-48e8-9638-5ee6a9395ed2}, !- Surface Rendering Name
  {ffda79cf-efbe-47b7-a676-7a37cf6ec8e1}, !- Layer 1
  {fa68b67d-237e-403e-932f-eec5431b6618}, !- Layer 2
  {a3147515-ecd4-4492-a0a9-dec37c584ad2}; !- Layer 3

OS:Material,
  {ffda79cf-efbe-47b7-a676-7a37cf6ec8e1}, !- Handle
  ExteriorFinish,                         !- Name
  Rough,                                  !- Roughness
  0.0254,                                 !- Thickness {m}
  0.649125,                               !- Conductivity {W/m-K}
  1281.6,                                 !- Density {kg/m3}
  879.27,                                 !- Specific Heat {J/kg-K}
  0.9,                                    !- Thermal Absorptance
  0.75,                                   !- Solar Absorptance
  0.75;                                   !- Visible Absorptance

OS:Material,
  {fa68b67d-237e-403e-932f-eec5431b6618}, !- Handle
  Plywood-1_2in,                          !- Name
  Rough,                                  !- Roughness
  0.0127,                                 !- Thickness {m}
  0.1154577,                              !- Conductivity {W/m-K}
  512.64,                                 !- Density {kg/m3}
  1214.23;                                !- Specific Heat {J/kg-K}

OS:Material,
  {a3147515-ecd4-4492-a0a9-dec37c584ad2}, !- Handle
  StudandAirWall,                         !- Name
  Rough,                                  !- Roughness
  0.0889,                                 !- Thickness {m}
  0.442568232,                            !- Conductivity {W/m-K}
  49.1000362486358,                       !- Density {kg/m3}
  1209.79555136641;                       !- Specific Heat {J/kg-K}

OS:Surface,
  {973b14c4-1d1e-42b1-9e93-f093b3234684}, !- Handle
  Wall3,                                  !- Name
  Wall,                                   !- Surface Type
  {6853183b-1be0-4f2c-a336-841546b80ec8}, !- Construction Name
  {c60139ac-cc4a-4a83-8f3c-6a4dfc48d7ea}, !- Space Name
  ground,                                 !- Outside Boundary Condition
  ,                                       !- Outside Boundary Condition Object
  NoSun,                                  !- Sun Exposure
  NoWind,                                 !- Wind Exposure
  0,                                      !- View Factor to Ground
  ,                                       !- Number of Vertices
  11.5824, 0, 1.2192,                     !- X,Y,Z Vertex 1 {m}
  11.5824, 0, 0,                          !- X,Y,Z Vertex 2 {m}
  11.5824, 7.3152, 0,                     !- X,Y,Z Vertex 3 {m}
  11.5824, 7.3152, 1.2192;                !- X,Y,Z Vertex 4 {m}

OS:Construction,
  {6853183b-1be0-4f2c-a336-841546b80ec8}, !- Handle
  GrndInsUnfinCSWall,                     !- Name
  {5adffc39-0e22-4c08-ac36-bd1fea1eb877}, !- Surface Rendering Name
  {9b9edbdd-cf75-458d-b674-ab6a2b0cd5e4}, !- Layer 1
  {d173cb35-380a-4edf-8c07-ae4f9f3e24d2}, !- Layer 2
  {07d6ca2c-98be-483f-92a7-a3d68e3e170d}; !- Layer 3

OS:Material:NoMass,
  {9b9edbdd-cf75-458d-b674-ab6a2b0cd5e4}, !- Handle
  CWall-FicR,                             !- Name
  Rough,                                  !- Roughness
  0.0995182101488838;                     !- Thermal Resistance {m2-K/W}

OS:Material,
  {d173cb35-380a-4edf-8c07-ae4f9f3e24d2}, !- Handle
  Soil-12in,                              !- Name
  Rough,                                  !- Roughness
  0.3048,                                 !- Thickness {m}
  1.731,                                  !- Conductivity {W/m-K}
  1842.3,                                 !- Density {kg/m3}
  418.7;                                  !- Specific Heat {J/kg-K}

OS:Material,
  {07d6ca2c-98be-483f-92a7-a3d68e3e170d}, !- Handle
  Concrete-8in,                           !- Name
  Rough,                                  !- Roughness
  0.2032,                                 !- Thickness {m}
  1.3114056,                              !- Conductivity {W/m-K}
  2242.8,                                 !- Density {kg/m3}
  837.4,                                  !- Specific Heat {J/kg-K}
  0.9;                                    !- Thermal Absorptance

OS:ThermalZone,
  {52f40195-01b6-4ae1-b320-d97d3400e855}, !- Handle
  crawlspace zone,                        !- Name
  1,                                      !- Multiplier
  1.2192,                                 !- Ceiling Height {m}
  103.299857856,                          !- Volume {m3}
  ,                                       !- Floor Area {m2}
  ,                                       !- Zone Inside Convection Algorithm
  ,                                       !- Zone Outside Convection Algorithm
  ,                                       !- Zone Conditioning Equipment List Name
  {63e0abd6-ec44-4ed3-a0d5-7123eb85db3a}, !- Zone Air Inlet Port List
  {365debdc-819d-4baf-9b7a-54fc8fe2ca7c}, !- Zone Air Exhaust Port List
  {d6668785-fdb6-4b03-addc-7d2808e4fbc0}, !- Zone Air Node Name
  ,                                       !- Zone Return Air Node Name
  ,                                       !- Primary Daylighting Control Name
  ,                                       !- Fraction of Zone Controlled by Primary Daylighting Control
  ,                                       !- Secondary Daylighting Control Name
  ,                                       !- Fraction of Zone Controlled by Secondary Daylighting Control
  ,                                       !- Illuminance Map Name
  {346c8201-268b-48df-9e82-020da49937ac}, !- Group Rendering Name
  ,                                       !- Thermostat Name
  No;                                     !- Use Ideal Air Loads

OS:Node,
  {370c0a35-c4b2-4a7d-812e-b796c094c224}, !- Handle
  {8198da5e-9879-4f62-9db3-979c3c3f0d37}, !- Name
  {d6668785-fdb6-4b03-addc-7d2808e4fbc0}, !- Inlet Port
  ;                                       !- Outlet Port

OS:Connection,
  {d6668785-fdb6-4b03-addc-7d2808e4fbc0}, !- Handle
  {e7b4629d-3333-4838-800f-2369fd5623fc}, !- Name
  {52f40195-01b6-4ae1-b320-d97d3400e855}, !- Source Object
  11,                                     !- Outlet Port
  {370c0a35-c4b2-4a7d-812e-b796c094c224}, !- Target Object
  2;                                      !- Inlet Port

OS:PortList,
  {63e0abd6-ec44-4ed3-a0d5-7123eb85db3a}, !- Handle
  {a5c09590-3591-4b67-ab31-f0d9156a2138}, !- Name
  {52f40195-01b6-4ae1-b320-d97d3400e855}; !- HVAC Component

OS:PortList,
  {365debdc-819d-4baf-9b7a-54fc8fe2ca7c}, !- Handle
  {020c5047-af29-4d4b-a6b3-c42ffcc5dffe}, !- Name
  {52f40195-01b6-4ae1-b320-d97d3400e855}; !- HVAC Component

OS:Sizing:Zone,
  {138f3820-8160-4a97-b4d6-48b5f1439fca}, !- Handle
  {52f40195-01b6-4ae1-b320-d97d3400e855}, !- Zone or ZoneList Name
  14,                                     !- Zone Cooling Design Supply Air Temperature {C}
  40,                                     !- Zone Heating Design Supply Air Temperature {C}
  0.0085,                                 !- Zone Cooling Design Supply Air Humidity Ratio {kg-H2O/kg-air}
  0.008,                                  !- Zone Heating Design Supply Air Humidity Ratio {kg-H2O/kg-air}
  ,                                       !- Zone Heating Sizing Factor
  ,                                       !- Zone Cooling Sizing Factor
  DesignDay,                              !- Cooling Design Air Flow Method
  ,                                       !- Cooling Design Air Flow Rate {m3/s}
  ,                                       !- Cooling Minimum Air Flow per Zone Floor Area {m3/s-m2}
  ,                                       !- Cooling Minimum Air Flow {m3/s}
  ,                                       !- Cooling Minimum Air Flow Fraction
  DesignDay,                              !- Heating Design Air Flow Method
  ,                                       !- Heating Design Air Flow Rate {m3/s}
  ,                                       !- Heating Maximum Air Flow per Zone Floor Area {m3/s-m2}
  ,                                       !- Heating Maximum Air Flow {m3/s}
  ,                                       !- Heating Maximum Air Flow Fraction
  ,                                       !- Design Zone Air Distribution Effectiveness in Cooling Mode
  ;                                       !- Design Zone Air Distribution Effectiveness in Heating Mode

OS:ZoneHVAC:EquipmentList,
  {2af50083-bc00-47bb-b814-f0831911a3c9}, !- Handle
  {c0697dda-6a24-4600-80d2-def8e83fc32f}, !- Name
  {52f40195-01b6-4ae1-b320-d97d3400e855}; !- Thermal Zone

OS:Space,
  {c60139ac-cc4a-4a83-8f3c-6a4dfc48d7ea}, !- Handle
  crawlspace space,                       !- Name
  {0df13f7d-bd8d-4330-8aae-4981172f47c3}, !- Space Type Name
  ,                                       !- Default Construction Set Name
  ,                                       !- Default Schedule Set Name
  0,                                      !- Direction of Relative North {deg}
  -5.7912,                                !- X Origin {m}
  -3.6576,                                !- Y Origin {m}
  -1.2192,                                !- Z Origin {m}
  ,                                       !- Building Story Name
  {52f40195-01b6-4ae1-b320-d97d3400e855}, !- Thermal Zone Name
  ,                                       !- Part of Total Floor Area
  ;                                       !- Design Specification Outdoor Air Object Name

OS:Construction,
  {1421adf7-2145-47c5-bfd7-f35e5e7f85f1}, !- Handle
  UnfinInsExtRoof,                        !- Name
  {587b97fc-ec7d-4532-a807-bfa7f96d65a1}, !- Surface Rendering Name
  {df79766d-f8ba-434d-bbda-c7f153605d86}, !- Layer 1
  {6777afd0-f197-4467-aee8-0ea9967905f4}, !- Layer 2
  {ae0b5eff-d668-4137-afb3-57ada65255ed}; !- Layer 3

OS:Material,
  {df79766d-f8ba-434d-bbda-c7f153605d86}, !- Handle
  RoofingMaterial,                        !- Name
  Rough,                                  !- Roughness
  0.0094488,                              !- Thickness {m}
  0.162714,                               !- Conductivity {W/m-K}
  1121.4,                                 !- Density {kg/m3}
  1465.45,                                !- Specific Heat {J/kg-K}
  0.91,                                   !- Thermal Absorptance
  0.92,                                   !- Solar Absorptance
  0.92;                                   !- Visible Absorptance

OS:Material,
  {ae0b5eff-d668-4137-afb3-57ada65255ed}, !- Handle
  UARoofIns,                              !- Name
  Rough,                                  !- Roughness
  0.18415,                                !- Thickness {m}
  9.27084646964554,                       !- Conductivity {W/m-K}
  36.9520923710139,                       !- Density {kg/m3}
  1208.18331512954;                       !- Specific Heat {J/kg-K}

OS:Construction,
  {e5b8b316-6af5-465d-aada-e69b6171be92}, !- Handle
  RevFinInsUnfinUAFloor,                  !- Name
  {e9f090b6-868b-453d-8855-41f8f9778555}, !- Surface Rendering Name
  {82b7009e-dd3a-4972-af9c-d2ddfd33e76e}, !- Layer 1
  {be97dee7-4209-4960-93e7-b1c278f0fa02}, !- Layer 2
  {b1cf8277-36b8-4e46-a1d8-320ba15a7a85}; !- Layer 3

OS:Material,
  {82b7009e-dd3a-4972-af9c-d2ddfd33e76e}, !- Handle
  UAAdditionalCeilingIns,                 !- Name
  Rough,                                  !- Roughness
  0.128270001078206,                      !- Thickness {m}
  0.04111125,                             !- Conductivity {W/m-K}
  16.02,                                  !- Density {kg/m3}
  1046.75;                                !- Specific Heat {J/kg-K}

OS:Material,
  {be97dee7-4209-4960-93e7-b1c278f0fa02}, !- Handle
  UATrussandIns,                          !- Name
  Rough,                                  !- Roughness
  0.0889,                                 !- Thickness {m}
  0.0436673814213727,                     !- Conductivity {W/m-K}
  50.7834,                                !- Density {kg/m3}
  1165.09548895899;                       !- Specific Heat {J/kg-K}

OS:Material,
  {b1cf8277-36b8-4e46-a1d8-320ba15a7a85}, !- Handle
  CeilingMass,                            !- Name
  Rough,                                  !- Roughness
  0.0127,                                 !- Thickness {m}
  0.1602906,                              !- Conductivity {W/m-K}
  801,                                    !- Density {kg/m3}
  837.4,                                  !- Specific Heat {J/kg-K}
  0.9,                                    !- Thermal Absorptance
  0.3,                                    !- Solar Absorptance
  0.1;                                    !- Visible Absorptance

OS:Construction,
  {62e154f9-24d8-44e3-a39d-abb7d7fef848}, !- Handle
  UnfinUninsFinWall,                      !- Name
  {a9892ac0-70a9-477c-998d-337010044860}, !- Surface Rendering Name
  {a3147515-ecd4-4492-a0a9-dec37c584ad2}, !- Layer 1
  {7658da03-1c3e-492b-bbf9-29269c1d72cc}; !- Layer 2

OS:Material,
  {7658da03-1c3e-492b-bbf9-29269c1d72cc}, !- Handle
  PartitionWallMass,                      !- Name
  Rough,                                  !- Roughness
  0.0127,                                 !- Thickness {m}
  0.1602906,                              !- Conductivity {W/m-K}
  801,                                    !- Density {kg/m3}
  837.4,                                  !- Specific Heat {J/kg-K}
  0.9,                                    !- Thermal Absorptance
  0.5,                                    !- Solar Absorptance
  0.1;                                    !- Visible Absorptance

OS:Material,
  {645aca8a-b73c-4f5d-b1fc-01b34a639484}, !- Handle
  2x4,                                    !- Name
  Rough,                                  !- Roughness
  0.0889,                                 !- Thickness {m}
  0.1154577,                              !- Conductivity {W/m-K}
  512.64,                                 !- Density {kg/m3}
  1214.23;                                !- Specific Heat {J/kg-K}

OS:SubSurface,
  {e5a0a6f5-58d8-4952-b0cf-470929fb70ca}, !- Handle
  Wall8-Window2,                          !- Name
  FixedWindow,                            !- Sub Surface Type
  {76ed0c3a-21e0-4c0e-aac0-e6a6d583c840}, !- Construction Name
  {0b467eb2-6254-434d-a5db-a607feeae8db}, !- Surface Name
  ,                                       !- Outside Boundary Condition Object
  0.5,                                    !- View Factor to Ground
  ,                                       !- Shading Control Name
  ,                                       !- Frame and Divider Name
  1,                                      !- Multiplier
  ,                                       !- Number of Vertices
  9.8558411976, 7.3152, 2.1336,           !- X,Y,Z Vertex 1 {m}
  9.8558411976, 7.3152, 0.919438429344,   !- X,Y,Z Vertex 2 {m}
  8.944992288288, 7.3152, 0.919438429344, !- X,Y,Z Vertex 3 {m}
  8.944992288288, 7.3152, 2.1336;         !- X,Y,Z Vertex 4 {m}

OS:Construction,
  {76ed0c3a-21e0-4c0e-aac0-e6a6d583c840}, !- Handle
  Back-Glass,                             !- Name
  {2f005cb4-d8c2-4c57-af7c-32beaf336abf}, !- Surface Rendering Name
  {f19e49b3-5d4b-4596-8016-98ad774c71c1}; !- Layer 1

OS:WindowMaterial:SimpleGlazingSystem,
  {f19e49b3-5d4b-4596-8016-98ad774c71c1}, !- Handle
  Back-Win,                               !- Name
  1.98076528277124,                       !- U-Factor {W/m2-K}
  0.309130645437316;                      !- Solar Heat Gain Coefficient

OS:Surface,
  {0b467eb2-6254-434d-a5db-a607feeae8db}, !- Handle
  Wall8,                                  !- Name
  Wall,                                   !- Surface Type
  {105e57c8-b097-4415-8795-c8af51605057}, !- Construction Name
  {9cf41867-6c89-4cb4-9f78-78780777cff6}, !- Space Name
  Outdoors,                               !- Outside Boundary Condition
  ,                                       !- Outside Boundary Condition Object
  SunExposed,                             !- Sun Exposure
  WindExposed,                            !- Wind Exposure
  ,                                       !- View Factor to Ground
  ,                                       !- Number of Vertices
  11.5824, 7.3152, 2.4384,                !- X,Y,Z Vertex 1 {m}
  11.5824, 7.3152, 0,                     !- X,Y,Z Vertex 2 {m}
  0, 7.3152, 0,                           !- X,Y,Z Vertex 3 {m}
  0, 7.3152, 2.4384;                      !- X,Y,Z Vertex 4 {m}

OS:Construction,
  {105e57c8-b097-4415-8795-c8af51605057}, !- Handle
  ExtInsFinWall,                          !- Name
  {4ecc6eba-c15b-41ae-b935-ea339c9de48f}, !- Surface Rendering Name
  {ffda79cf-efbe-47b7-a676-7a37cf6ec8e1}, !- Layer 1
  {066fe8c0-2b7f-4ae6-bb55-e6b9530eaa3c}, !- Layer 2
  {d64b132f-8ef4-4e4d-a13c-bd58df7ae067}; !- Layer 3

OS:Material,
  {066fe8c0-2b7f-4ae6-bb55-e6b9530eaa3c}, !- Handle
  StudandCavity,                          !- Name
  Rough,                                  !- Roughness
  0.0889,                                 !- Thickness {m}
  0.0553845876584766,                     !- Conductivity {W/m-K}
  162.40275,                              !- Density {kg/m3}
  1178.91670776819;                       !- Specific Heat {J/kg-K}

OS:Material,
  {d64b132f-8ef4-4e4d-a13c-bd58df7ae067}, !- Handle
  ExtWallMass,                            !- Name
  Rough,                                  !- Roughness
  0.0127,                                 !- Thickness {m}
  0.1602906,                              !- Conductivity {W/m-K}
  801,                                    !- Density {kg/m3}
  837.4,                                  !- Specific Heat {J/kg-K}
  0.9,                                    !- Thermal Absorptance
  0.5,                                    !- Solar Absorptance
  0.1;                                    !- Visible Absorptance

OS:ThermalZone,
  {a2b6f557-2f50-4ebc-b04c-aca5f61bb2af}, !- Handle
  living zone,                            !- Name
  1,                                      !- Multiplier
  4.8768,                                 !- Ceiling Height {m}
  413.199431424,                          !- Volume {m3}
  ,                                       !- Floor Area {m2}
  ,                                       !- Zone Inside Convection Algorithm
  ,                                       !- Zone Outside Convection Algorithm
  ,                                       !- Zone Conditioning Equipment List Name
  {8c142616-854a-4d6e-b585-a27003705fc9}, !- Zone Air Inlet Port List
  {c480f10b-695b-4990-9046-80e357825889}, !- Zone Air Exhaust Port List
  {cb37e1f6-eed0-40d9-a93f-c08265e53e57}, !- Zone Air Node Name
  ,                                       !- Zone Return Air Node Name
  ,                                       !- Primary Daylighting Control Name
  ,                                       !- Fraction of Zone Controlled by Primary Daylighting Control
  ,                                       !- Secondary Daylighting Control Name
  ,                                       !- Fraction of Zone Controlled by Secondary Daylighting Control
  ,                                       !- Illuminance Map Name
  {7dff29a0-7270-446b-9159-493481ffd417}, !- Group Rendering Name
  ,                                       !- Thermostat Name
  No;                                     !- Use Ideal Air Loads

OS:Node,
  {a0b9e00c-bb2f-4706-b70e-9bd10e8f8eda}, !- Handle
  {a663ac18-2501-49d2-9b61-7204ad4304ea}, !- Name
  {cb37e1f6-eed0-40d9-a93f-c08265e53e57}, !- Inlet Port
  ;                                       !- Outlet Port

OS:Connection,
  {cb37e1f6-eed0-40d9-a93f-c08265e53e57}, !- Handle
  {38651dd3-98ac-466e-bbfd-58e970eabb0e}, !- Name
  {a2b6f557-2f50-4ebc-b04c-aca5f61bb2af}, !- Source Object
  11,                                     !- Outlet Port
  {a0b9e00c-bb2f-4706-b70e-9bd10e8f8eda}, !- Target Object
  2;                                      !- Inlet Port

OS:PortList,
  {8c142616-854a-4d6e-b585-a27003705fc9}, !- Handle
  {aead1c3e-698f-436a-b131-928b6b862493}, !- Name
  {a2b6f557-2f50-4ebc-b04c-aca5f61bb2af}; !- HVAC Component

OS:PortList,
  {c480f10b-695b-4990-9046-80e357825889}, !- Handle
  {6a855ce5-ccff-40e8-9958-6a0fa7f74e95}, !- Name
  {a2b6f557-2f50-4ebc-b04c-aca5f61bb2af}; !- HVAC Component

OS:Sizing:Zone,
  {7d33f63a-6f61-4f8e-9f5f-da510f96e907}, !- Handle
  {a2b6f557-2f50-4ebc-b04c-aca5f61bb2af}, !- Zone or ZoneList Name
  14,                                     !- Zone Cooling Design Supply Air Temperature {C}
  40,                                     !- Zone Heating Design Supply Air Temperature {C}
  0.0085,                                 !- Zone Cooling Design Supply Air Humidity Ratio {kg-H2O/kg-air}
  0.008,                                  !- Zone Heating Design Supply Air Humidity Ratio {kg-H2O/kg-air}
  ,                                       !- Zone Heating Sizing Factor
  ,                                       !- Zone Cooling Sizing Factor
  DesignDay,                              !- Cooling Design Air Flow Method
  ,                                       !- Cooling Design Air Flow Rate {m3/s}
  ,                                       !- Cooling Minimum Air Flow per Zone Floor Area {m3/s-m2}
  ,                                       !- Cooling Minimum Air Flow {m3/s}
  ,                                       !- Cooling Minimum Air Flow Fraction
  DesignDay,                              !- Heating Design Air Flow Method
  ,                                       !- Heating Design Air Flow Rate {m3/s}
  ,                                       !- Heating Maximum Air Flow per Zone Floor Area {m3/s-m2}
  ,                                       !- Heating Maximum Air Flow {m3/s}
  ,                                       !- Heating Maximum Air Flow Fraction
  ,                                       !- Design Zone Air Distribution Effectiveness in Cooling Mode
  ;                                       !- Design Zone Air Distribution Effectiveness in Heating Mode

OS:ZoneHVAC:EquipmentList,
  {2a45cece-66bc-4e82-b7c5-c59f4bd332fe}, !- Handle
  {b88cafe3-2f0a-4900-a97a-7267d6a4085a}, !- Name
  {a2b6f557-2f50-4ebc-b04c-aca5f61bb2af}; !- Thermal Zone

OS:Space,
  {9cf41867-6c89-4cb4-9f78-78780777cff6}, !- Handle
  living space,                           !- Name
  {1df307d2-afe0-4937-8d6d-c3a541d75bf0}, !- Space Type Name
  ,                                       !- Default Construction Set Name
  ,                                       !- Default Schedule Set Name
  0,                                      !- Direction of Relative North {deg}
  -5.7912,                                !- X Origin {m}
  -3.6576,                                !- Y Origin {m}
  0,                                      !- Z Origin {m}
  ,                                       !- Building Story Name
  {a2b6f557-2f50-4ebc-b04c-aca5f61bb2af}, !- Thermal Zone Name
  ,                                       !- Part of Total Floor Area
  ;                                       !- Design Specification Outdoor Air Object Name

OS:Construction,
  {bb27f0ed-5fa3-424f-ae07-ad02ccbcf783}, !- Handle
  UnfinCSInsFinFloor,                     !- Name
  {5f795894-5071-4712-bcf5-cf9c91083874}, !- Surface Rendering Name
  {9cb6e8c9-e9cc-499b-8a53-ebbd06948f10}, !- Layer 1
  {6777afd0-f197-4467-aee8-0ea9967905f4}, !- Layer 2
  {e61ad3d7-23dd-4b0a-908d-393ac888d448}, !- Layer 3
  {11a9df3d-3540-4436-b997-981c416d345b}; !- Layer 4

OS:Construction,
  {25e76593-0f4d-41a6-b175-5162b9f15f13}, !- Handle
  Left-Glass,                             !- Name
  {b9caf0ab-2331-406d-83a8-8a31c48737ec}, !- Surface Rendering Name
  {ccad7dbc-b214-49a3-869a-a9dfb54a4554}; !- Layer 1

OS:WindowMaterial:SimpleGlazingSystem,
  {ccad7dbc-b214-49a3-869a-a9dfb54a4554}, !- Handle
  Left-Win,                               !- Name
  1.98076528277124,                       !- U-Factor {W/m2-K}
  0.309130645437316;                      !- Solar Heat Gain Coefficient

OS:SubSurface,
  {163d09f3-2c0d-4c22-8658-6cd5026d2282}, !- Handle
  Wall12-Window3,                         !- Name
  FixedWindow,                            !- Sub Surface Type
  {76ed0c3a-21e0-4c0e-aac0-e6a6d583c840}, !- Construction Name
  {8a412446-7419-4c40-95cb-4b0a80cb2abe}, !- Surface Name
  ,                                       !- Outside Boundary Condition Object
  0.5,                                    !- View Factor to Ground
  ,                                       !- Shading Control Name
  ,                                       !- Frame and Divider Name
  1,                                      !- Multiplier
  ,                                       !- Number of Vertices
  5.27481524664, 7.3152, 4.572,           !- X,Y,Z Vertex 1 {m}
  5.27481524664, 7.3152, 3.357838429344,  !- X,Y,Z Vertex 2 {m}
  4.363966337328, 7.3152, 3.357838429344, !- X,Y,Z Vertex 3 {m}
  4.363966337328, 7.3152, 4.572;          !- X,Y,Z Vertex 4 {m}

OS:Surface,
  {8a412446-7419-4c40-95cb-4b0a80cb2abe}, !- Handle
  Wall12,                                 !- Name
  Wall,                                   !- Surface Type
  {105e57c8-b097-4415-8795-c8af51605057}, !- Construction Name
  {9cf41867-6c89-4cb4-9f78-78780777cff6}, !- Space Name
  Outdoors,                               !- Outside Boundary Condition
  ,                                       !- Outside Boundary Condition Object
  SunExposed,                             !- Sun Exposure
  WindExposed,                            !- Wind Exposure
  ,                                       !- View Factor to Ground
  ,                                       !- Number of Vertices
  11.5824, 7.3152, 4.8768,                !- X,Y,Z Vertex 1 {m}
  11.5824, 7.3152, 2.4384,                !- X,Y,Z Vertex 2 {m}
  0, 7.3152, 2.4384,                      !- X,Y,Z Vertex 3 {m}
  0, 7.3152, 4.8768;                      !- X,Y,Z Vertex 4 {m}

OS:Material,
  {c868e5be-28fe-4400-ab85-95e8babec6fd}, !- Handle
  2x,                                     !- Name
  Rough,                                  !- Roughness
  0.23495,                                !- Thickness {m}
  0.1154577,                              !- Conductivity {W/m-K}
  512.64,                                 !- Density {kg/m3}
  1214.23;                                !- Specific Heat {J/kg-K}

OS:Surface,
  {373fe80e-690f-4463-96af-a0814537843f}, !- Handle