
OS:Version,
  {3082c12f-8766-4053-94d4-bfe411f88f93}, !- Handle
  1.9.0;                                  !- Version Identifier

OS:Site,
  {d34dc043-0c55-4507-bed7-2727772c3850}, !- Handle
  Atlanta Hartsfield Intl Ap,             !- Name
  33.63,                                  !- Latitude {deg}
  -84.43,                                 !- Longitude {deg}
  -5,                                     !- Time Zone {hr}
  308,                                    !- Elevation {m}
  Suburbs;                                !- Terrain

OS:SimulationControl,
  {a3906a39-7009-4869-b7cc-41e28aee3d93}, !- Handle
  Yes,                                    !- Do Zone Sizing Calculation
  No,                                     !- Do System Sizing Calculation
  Yes,                                    !- Do Plant Sizing Calculation
  No,                                     !- Run Simulation for Sizing Periods
  Yes,                                    !- Run Simulation for Weather File Run Periods
  0.05,                                   !- Loads Convergence Tolerance Value
  0.05,                                   !- Temperature Convergence Tolerance Value {deltaC}
  FullExterior,                           !- Solar Distribution
  50;                                     !- Maximum Number of Warmup Days

OS:Construction,
  {55a5edc5-2f8f-4670-9865-0a10763b5f6c}, !- Handle
  AdiabaticConst,                         !- Name
  {ff5df81f-0d17-4483-bef9-5dbd16562246}, !- Surface Rendering Name
  {2ed0eaac-7851-403e-8bbe-858df36fa12f}; !- Layer 1

OS:Material:NoMass,
  {2ed0eaac-7851-403e-8bbe-858df36fa12f}, !- Handle
  Adiabatic,                              !- Name
  Rough,                                  !- Roughness
  176.1;                                  !- Thermal Resistance {m2-K/W}

OS:ShadingSurfaceGroup,
  {90a0b5cd-23c4-4cf5-b9ce-61de1eeb63d0}, !- Handle
  {9a36b4ca-5612-4728-8b6b-2feda2b962b0}, !- Name
  Building,                               !- Shading Surface Type
  ,                                       !- Space Name
  ,                                       !- Direction of Relative North {deg}
  ,                                       !- X Origin {m}
  ,                                       !- Y Origin {m}
  ,                                       !- Z Origin {m}
  ;                                       !- Shaded Object Name

OS:ThermalZone,
  {fd0793a6-6b8f-4ddd-9709-7c74499b2d2d}, !- Handle
  living_1 Thermal Zone,                  !- Name
  1,                                      !- Multiplier
  4.8768,                                 !- Ceiling Height {m}
  413.199431424,                          !- Volume {m3}
  ,                                       !- Floor Area {m2}
  ,                                       !- Zone Inside Convection Algorithm
  ,                                       !- Zone Outside Convection Algorithm
  ,                                       !- Zone Conditioning Equipment List Name
  {b7b7f0a5-2f24-4a5b-9f56-9f08e0b7b9a6}, !- Zone Air Inlet Port List
  {594b6fb8-1270-4978-8564-93a00ee71e8e}, !- Zone Air Exhaust Port List
  {6e0515e3-987b-4abd-b85a-eef4590bf22a}, !- Zone Air Node Name
  ,                                       !- Zone Return Air Node Name
  ,                                       !- Primary Daylighting Control Name
  ,                                       !- Fraction of Zone Controlled by Primary Daylighting Control
  ,                                       !- Secondary Daylighting Control Name
  ,                                       !- Fraction of Zone Controlled by Secondary Daylighting Control
  ,                                       !- Illuminance Map Name
  {ab5536fa-fb56-4bcf-8969-9a4b17e99a3c}, !- Group Rendering Name
  ,                                       !- Thermostat Name
  No,                                     !- Use Ideal Air Loads
  ;                                       !- Humidistat Name

OS:Node,
  {264877da-3d19-41a1-ab0c-f1765864d804}, !- Handle
  {83f3fa5f-1cf7-4c7c-9d99-ceb2d1de9b6c}, !- Name
  {6e0515e3-987b-4abd-b85a-eef4590bf22a}, !- Inlet Port
  ;                                       !- Outlet Port

OS:Connection,
  {6e0515e3-987b-4abd-b85a-eef4590bf22a}, !- Handle
  {8cc491c5-76db-45fa-8aaf-3f9786621d8a}, !- Name
  {fd0793a6-6b8f-4ddd-9709-7c74499b2d2d}, !- Source Object
  11,                                     !- Outlet Port
  {264877da-3d19-41a1-ab0c-f1765864d804}, !- Target Object
  2;                                      !- Inlet Port

OS:PortList,
  {b7b7f0a5-2f24-4a5b-9f56-9f08e0b7b9a6}, !- Handle
  {c1efa889-1007-4eab-9348-3e3e7a22b5b6}, !- Name
  {fd0793a6-6b8f-4ddd-9709-7c74499b2d2d}; !- HVAC Component

OS:PortList,
  {594b6fb8-1270-4978-8564-93a00ee71e8e}, !- Handle
  {f39d50b3-e8c2-404a-a797-f82003e75147}, !- Name
  {fd0793a6-6b8f-4ddd-9709-7c74499b2d2d}; !- HVAC Component

OS:Sizing:Zone,
  {bfe7d2b8-6ae3-4785-afcc-2184410e3144}, !- Handle
  {fd0793a6-6b8f-4ddd-9709-7c74499b2d2d}, !- Zone or ZoneList Name
  14,                                     !- Zone Cooling Design Supply Air Temperature {C}
  40,                                     !- Zone Heating Design Supply Air Temperature {C}
  0.0085,                                 !- Zone Cooling Design Supply Air Humidity Ratio {kg-H2O/kg-air}
  0.008,                                  !- Zone Heating Design Supply Air Humidity Ratio {kg-H2O/kg-air}
  ,                                       !- Zone Heating Sizing Factor
  ,                                       !- Zone Cooling Sizing Factor
  DesignDay,                              !- Cooling Design Air Flow Method
  ,                                       !- Cooling Design Air Flow Rate {m3/s}
  ,                                       !- Cooling Minimum Air Flow per Zone Floor Area {m3/s-m2}
  ,                                       !- Cooling Minimum Air Flow {m3/s}
  ,                                       !- Cooling Minimum Air Flow Fraction
  DesignDay,                              !- Heating Design Air Flow Method
  ,                                       !- Heating Design Air Flow Rate {m3/s}
  ,                                       !- Heating Maximum Air Flow per Zone Floor Area {m3/s-m2}
  ,                                       !- Heating Maximum Air Flow {m3/s}
  ,                                       !- Heating Maximum Air Flow Fraction
  ,                                       !- Design Zone Air Distribution Effectiveness in Cooling Mode
  ;                                       !- Design Zone Air Distribution Effectiveness in Heating Mode

OS:ZoneHVAC:EquipmentList,
  {2e01c89a-4f0b-49cc-be09-56e4f065b776}, !- Handle
  {c911df50-7541-4556-9411-7ffd31e22eca}, !- Name
  {fd0793a6-6b8f-4ddd-9709-7c74499b2d2d}; !- Thermal Zone

OS:Space,
  {a573d9d3-648d-405e-881d-ac9307ad71c0}, !- Handle
  living_1,                               !- Name
  {0b8be414-6638-4f83-8c42-ac6572abafe6}, !- Space Type Name
  ,                                       !- Default Construction Set Name
  ,                                       !- Default Schedule Set Name
  0,                                      !- Direction of Relative North {deg}
  -5.7912,                                !- X Origin {m}
  -3.6576,                                !- Y Origin {m}
  0,                                      !- Z Origin {m}
  ,                                       !- Building Story Name
  {fd0793a6-6b8f-4ddd-9709-7c74499b2d2d}, !- Thermal Zone Name
  ,                                       !- Part of Total Floor Area
  ;                                       !- Design Specification Outdoor Air Object Name

OS:Construction,
  {d47d340a-ea48-4087-91a2-7590c1d73ce9}, !- Handle
  FinInsUnfinUAFloor,                     !- Name
  {d1b50f21-2ea5-464e-8ebf-ec1704789e14}, !- Surface Rendering Name
  {eebab5c4-6753-42c9-88ac-3bf5389f7204}, !- Layer 1
  {185e8b3d-244f-4fce-9fa2-21553380b74a}, !- Layer 2
  {e2753605-1768-4d69-a855-6ced369d67f4}; !- Layer 3

OS:Material,
  {eebab5c4-6753-42c9-88ac-3bf5389f7204}, !- Handle
  CeilingMass,                            !- Name
  Rough,                                  !- Roughness
  0.0127,                                 !- Thickness {m}
  0.1602906,                              !- Conductivity {W/m-K}
  801,                                    !- Density {kg/m3}
  837.4,                                  !- Specific Heat {J/kg-K}
  0.9,                                    !- Thermal Absorptance
  0.3,                                    !- Solar Absorptance
  0.1;                                    !- Visible Absorptance

OS:Material,
  {185e8b3d-244f-4fce-9fa2-21553380b74a}, !- Handle
  UATrussandIns,                          !- Name
  Rough,                                  !- Roughness
  0.0889,                                 !- Thickness {m}
  0.0436673814213727,                     !- Conductivity {W/m-K}
  50.7834,                                !- Density {kg/m3}
  1165.09548895899;                       !- Specific Heat {J/kg-K}

OS:Material,
  {e2753605-1768-4d69-a855-6ced369d67f4}, !- Handle
  UAAdditionalCeilingIns,                 !- Name
  Rough,                                  !- Roughness
  0.128270001078206,                      !- Thickness {m}
  0.04111125,                             !- Conductivity {W/m-K}
  16.02,                                  !- Density {kg/m3}
  1046.75;                                !- Specific Heat {J/kg-K}

OS:Construction,
  {00e89029-5c00-45f5-84f6-c1006951644d}, !- Handle
  UnfinCSInsFinFloor,                     !- Name
  {7ae83c4f-b8ce-4319-b706-6e4bb5c50444}, !- Surface Rendering Name
  {bf86a0c5-041b-4dec-bda8-2e8d3dd80a0b}, !- Layer 1
  {238715ef-f684-4650-a147-5440b54d89a9}, !- Layer 2
  {15298549-9d89-4070-894e-69ca366a17b8}, !- Layer 3
  {5dde5f0c-81eb-43dc-89e0-4f4eac32dcca}; !- Layer 4

OS:Material,
  {bf86a0c5-041b-4dec-bda8-2e8d3dd80a0b}, !- Handle
  CrawlCeilingIns,                        !- Name
  Rough,                                  !- Roughness
  0.23495,                                !- Thickness {m}
  0.104255480780977,                      !- Conductivity {W/m-K}
  106.36479,                              !- Density {kg/m3}
  1151.68513065743;                       !- Specific Heat {J/kg-K}

OS:Material,
  {238715ef-f684-4650-a147-5440b54d89a9}, !- Handle
  Plywood-3_4in,                          !- Name
  Rough,                                  !- Roughness
  0.01905,                                !- Thickness {m}
  0.1154577,                              !- Conductivity {W/m-K}
  512.64,                                 !- Density {kg/m3}
  1214.23;                                !- Specific Heat {J/kg-K}

OS:Material,
  {15298549-9d89-4070-894e-69ca366a17b8}, !- Handle
  FloorMass,                              !- Name
  Rough,                                  !- Roughness
  0.015875,                               !- Thickness {m}
  0.1154577,                              !- Conductivity {W/m-K}
  544.68,                                 !- Density {kg/m3}
  1214.23,                                !- Specific Heat {J/kg-K}
  0.9,                                    !- Thermal Absorptance
  0.6;                                    !- Solar Absorptance

OS:Material,
  {5dde5f0c-81eb-43dc-89e0-4f4eac32dcca}, !- Handle
  CarpetBareLayer,                        !- Name
  Rough,                                  !- Roughness
  0.0127,                                 !- Thickness {m}
  0.0433443509615385,                     !- Conductivity {W/m-K}
  54.468,                                 !- Density {kg/m3}
  1339.84,                                !- Specific Heat {J/kg-K}
  0.9,                                    !- Thermal Absorptance
  0.9;                                    !- Solar Absorptance

OS:Material,
  {247466fb-ee09-4798-bd23-feeb77c15291}, !- Handle
  Concrete-4in,                           !- Name
  Rough,                                  !- Roughness
  0.1016,                                 !- Thickness {m}
  1.3114056,                              !- Conductivity {W/m-K}
  2242.8,                                 !- Density {kg/m3}
  837.4,                                  !- Specific Heat {J/kg-K}
  0.9;                                    !- Thermal Absorptance

OS:Material,
  {b73149a6-9873-450d-a186-9ea835fc4c83}, !- Handle
  Concrete-8in,                           !- Name
  Rough,                                  !- Roughness
  0.2032,                                 !- Thickness {m}
  1.3114056,                              !- Conductivity {W/m-K}
  2242.8,                                 !- Density {kg/m3}
  837.4,                                  !- Specific Heat {J/kg-K}
  0.9;                                    !- Thermal Absorptance

OS:Surface,
  {f16ee2d5-9960-4ba4-a26a-f2912afd30c2}, !- Handle
  Wall11,                                 !- Name
  Wall,                                   !- Surface Type
  {fd52069d-c1f6-4b74-a019-8cf8cff9c59b}, !- Construction Name
  {a573d9d3-648d-405e-881d-ac9307ad71c0}, !- Space Name
  Outdoors,                               !- Outside Boundary Condition
  ,                                       !- Outside Boundary Condition Object
  SunExposed,                             !- Sun Exposure
  WindExposed,                            !- Wind Exposure
  ,                                       !- View Factor to Ground
  ,                                       !- Number of Vertices
  11.5824, 0, 4.8768,                     !- X,Y,Z Vertex 1 {m}
  11.5824, 0, 2.4384,                     !- X,Y,Z Vertex 2 {m}
  11.5824, 7.3152, 2.4384,                !- X,Y,Z Vertex 3 {m}
  11.5824, 7.3152, 4.8768;                !- X,Y,Z Vertex 4 {m}

OS:Construction,
  {fd52069d-c1f6-4b74-a019-8cf8cff9c59b}, !- Handle
  ExtInsFinWall,                          !- Name
  {71c1886c-58e1-4de5-a879-c3e386284a91}, !- Surface Rendering Name
  {9ee79dc9-664a-4797-bb73-8d6ab179b8fa}, !- Layer 1
  {9c54028c-0d22-4bb3-8f48-042bc5e02e38}, !- Layer 2
  {a9714ab0-8505-469f-ad17-1a9c40b61971}; !- Layer 3

OS:Material,
  {9ee79dc9-664a-4797-bb73-8d6ab179b8fa}, !- Handle
  ExteriorFinish,                         !- Name
  Rough,                                  !- Roughness
  0.0254,                                 !- Thickness {m}
  0.649125,                               !- Conductivity {W/m-K}
  1281.6,                                 !- Density {kg/m3}
  879.27,                                 !- Specific Heat {J/kg-K}
  0.9,                                    !- Thermal Absorptance
  0.75,                                   !- Solar Absorptance
  0.75;                                   !- Visible Absorptance

OS:Material,
  {9c54028c-0d22-4bb3-8f48-042bc5e02e38}, !- Handle
  StudandCavity,                          !- Name
  Rough,                                  !- Roughness
  0.0889,                                 !- Thickness {m}
  0.0553845876584766,                     !- Conductivity {W/m-K}
  162.40275,                              !- Density {kg/m3}
  1178.91670776819;                       !- Specific Heat {J/kg-K}

OS:Material,
  {a9714ab0-8505-469f-ad17-1a9c40b61971}, !- Handle
  ExtWallMass,                            !- Name
  Rough,                                  !- Roughness
  0.0127,                                 !- Thickness {m}
  0.1602906,                              !- Conductivity {W/m-K}
  801,                                    !- Density {kg/m3}
  837.4,                                  !- Specific Heat {J/kg-K}
  0.9,                                    !- Thermal Absorptance
  0.5,                                    !- Solar Absorptance
  0.1;                                    !- Visible Absorptance

OS:Construction,
  {b1633a9e-4178-49a7-863e-e474c86919a2}, !- Handle
  CSRimJoist,                             !- Name
  {1f9ebfd8-ec2c-4d15-bc31-5a36ca3d6a70}, !- Surface Rendering Name
  {9ee79dc9-664a-4797-bb73-8d6ab179b8fa}, !- Layer 1
  {b4a8e43d-6de0-44c9-a831-2bc858ec135b}, !- Layer 2
  {267c51ae-78af-4cfb-b075-05aa685fff80}; !- Layer 3

OS:Material,
  {b4a8e43d-6de0-44c9-a831-2bc858ec135b}, !- Handle
  Plywood-3_2in,                          !- Name
  Rough,                                  !- Roughness
  0.0381,                                 !- Thickness {m}
  0.1154577,                              !- Conductivity {W/m-K}
  512.64,                                 !- Density {kg/m3}
  1214.23;                                !- Specific Heat {J/kg-K}

OS:Material,
  {267c51ae-78af-4cfb-b075-05aa685fff80}, !- Handle
  CSJoistandCavity,                       !- Name
  Rough,                                  !- Roughness
  0.23495,                                !- Thickness {m}
  0.0962761862323761,                     !- Conductivity {W/m-K}
  108.738954,                             !- Density {kg/m3}
  1149.39401785583;                       !- Specific Heat {J/kg-K}

OS:Construction,
  {a75a5df2-53e5-47e7-8d14-4ac9d5bbb3ea}, !- Handle
  RevUnfinCSInsFinFloor,                  !- Name
  {56bd262d-f691-40fb-9fef-722dffd87be9}, !- Surface Rendering Name
  {5dde5f0c-81eb-43dc-89e0-4f4eac32dcca}, !- Layer 1
  {15298549-9d89-4070-894e-69ca366a17b8}, !- Layer 2
  {238715ef-f684-4650-a147-5440b54d89a9}, !- Layer 3
  {bf86a0c5-041b-4dec-bda8-2e8d3dd80a0b}; !- Layer 4

OS:HeatBalanceAlgorithm,
  {6883a191-7f05-49a1-a834-a27e5cbe9992}, !- Handle
  ConductionTransferFunction,             !- Algorithm
  200;                                    !- Surface Temperature Upper Limit {C}

OS:ThermalZone,
  {0ef5fead-a880-454c-8162-794a887dfa4d}, !- Handle
  unfinishedattic Thermal Zone,           !- Name
  ,                                       !- Multiplier
  2.1336,                                 !- Ceiling Height {m}
  77.474893392,                           !- Volume {m3}
  ,                                       !- Floor Area {m2}
  ,                                       !- Zone Inside Convection Algorithm
  ,                                       !- Zone Outside Convection Algorithm
  ,                                       !- Zone Conditioning Equipment List Name
  {8b79297c-4adc-4fa3-b680-6952ee682892}, !- Zone Air Inlet Port List
  {d7ef1db8-2da0-4f0b-9874-bed9b1b3af42}, !- Zone Air Exhaust Port List
  {b080cb46-af4a-461a-9e5a-0e9415f45f51}, !- Zone Air Node Name
  ,                                       !- Zone Return Air Node Name
  ,                                       !- Primary Daylighting Control Name
  ,                                       !- Fraction of Zone Controlled by Primary Daylighting Control
  ,                                       !- Secondary Daylighting Control Name
  ,                                       !- Fraction of Zone Controlled by Secondary Daylighting Control
  ,                                       !- Illuminance Map Name
  {997e6d62-eebf-447e-bcd2-0173b78626d3}, !- Group Rendering Name
  ,                                       !- Thermostat Name
  No,                                     !- Use Ideal Air Loads
  ;                                       !- Humidistat Name

OS:Node,
  {5029112a-73b3-471b-badd-8b632470f66e}, !- Handle
  {50871258-2ac9-498d-81fd-eaafa7617243}, !- Name
  {b080cb46-af4a-461a-9e5a-0e9415f45f51}, !- Inlet Port
  ;                                       !- Outlet Port

OS:Connection,
  {b080cb46-af4a-461a-9e5a-0e9415f45f51}, !- Handle
  {328b692e-74c9-4bbd-a1b0-46f318456e17}, !- Name
  {0ef5fead-a880-454c-8162-794a887dfa4d}, !- Source Object
  11,                                     !- Outlet Port
  {5029112a-73b3-471b-badd-8b632470f66e}, !- Target Object
  2;                                      !- Inlet Port

OS:PortList,
  {8b79297c-4adc-4fa3-b680-6952ee682892}, !- Handle
  {ec2a18c5-63b6-467f-b6e2-4a0c754d2500}, !- Name
  {0ef5fead-a880-454c-8162-794a887dfa4d}; !- HVAC Component

OS:PortList,
  {d7ef1db8-2da0-4f0b-9874-bed9b1b3af42}, !- Handle
  {b2b836a7-6e93-4982-b8d4-a22aa81e0c2e}, !- Name
  {0ef5fead-a880-454c-8162-794a887dfa4d}; !- HVAC Component

OS:Sizing:Zone,
  {67922ef2-0e6a-4ffc-ba55-d6649ec53490}, !- Handle
  {0ef5fead-a880-454c-8162-794a887dfa4d}, !- Zone or ZoneList Name
  14,                                     !- Zone Cooling Design Supply Air Temperature {C}
  40,                                     !- Zone Heating Design Supply Air Temperature {C}
  0.0085,                                 !- Zone Cooling Design Supply Air Humidity Ratio {kg-H2O/kg-air}
  0.008,                                  !- Zone Heating Design Supply Air Humidity Ratio {kg-H2O/kg-air}
  ,                                       !- Zone Heating Sizing Factor
  ,                                       !- Zone Cooling Sizing Factor
  DesignDay,                              !- Cooling Design Air Flow Method
  ,                                       !- Cooling Design Air Flow Rate {m3/s}
  ,                                       !- Cooling Minimum Air Flow per Zone Floor Area {m3/s-m2}
  ,                                       !- Cooling Minimum Air Flow {m3/s}
  ,                                       !- Cooling Minimum Air Flow Fraction
  DesignDay,                              !- Heating Design Air Flow Method
  ,                                       !- Heating Design Air Flow Rate {m3/s}
  ,                                       !- Heating Maximum Air Flow per Zone Floor Area {m3/s-m2}
  ,                                       !- Heating Maximum Air Flow {m3/s}
  ,                                       !- Heating Maximum Air Flow Fraction
  ,                                       !- Design Zone Air Distribution Effectiveness in Cooling Mode
  ;                                       !- Design Zone Air Distribution Effectiveness in Heating Mode

OS:ZoneHVAC:EquipmentList,
  {a57597ef-995d-4c16-9ae0-96c3ffde36cf}, !- Handle
  {49f45374-b37d-4843-adf0-2831a5e26749}, !- Name
  {0ef5fead-a880-454c-8162-794a887dfa4d}; !- Thermal Zone

OS:Space,
  {3a312d7e-de89-49f5-a4da-1d7fea058a80}, !- Handle
  unfinishedattic,                        !- Name
  {e4daa147-627f-4101-8228-df2d4cde5e0d}, !- Space Type Name
  ,                                       !- Default Construction Set Name
  ,                                       !- Default Schedule Set Name
  0,                                      !- Direction of Relative North {deg}
  -5.7912,                                !- X Origin {m}
  -3.6576,                                !- Y Origin {m}
  4.8768,                                 !- Z Origin {m}
  ,                                       !- Building Story Name
  {0ef5fead-a880-454c-8162-794a887dfa4d}, !- Thermal Zone Name
  ,                                       !- Part of Total Floor Area
  ;                                       !- Design Specification Outdoor Air Object Name

OS:Material,
  {efd01449-410a-4096-b887-38f69656cc1a}, !- Handle
  WoodFlooring,                           !- Name
  Rough,                                  !- Roughness
  0.01905,                                !- Thickness {m}
  0.1154577,                              !- Conductivity {W/m-K}
  512.64,                                 !- Density {kg/m3}
  1214.23,                                !- Specific Heat {J/kg-K}
  0.9,                                    !- Thermal Absorptance
  0.6;                                    !- Solar Absorptance

OS:Material,
  {453359ca-1492-4913-be96-296a8c387d37}, !- Handle
  GypsumBoard-1_2in,                      !- Name
  Rough,                                  !- Roughness
  0.0127,                                 !- Thickness {m}
  0.1602906,                              !- Conductivity {W/m-K}
  801,                                    !- Density {kg/m3}
  837.4,                                  !- Specific Heat {J/kg-K}
  0.9,                                    !- Thermal Absorptance
  0.5,                                    !- Solar Absorptance
  0.1;                                    !- Visible Absorptance

OS:SubSurface,
  {1029b8a1-48d3-461e-a0cf-5cda2db7e338}, !- Handle
  Wall5-Window1,                          !- Name
  FixedWindow,                            !- Sub Surface Type
  {addfdb0b-028a-4deb-b6f2-e6e3b578a76b}, !- Construction Name
  {9e7bff29-6861-47d8-bc4a-a7b9b4854106}, !- Surface Name
  ,                                       !- Outside Boundary Condition Object
  0.5,                                    !- View Factor to Ground
  ,                                       !- Shading Control Name
  ,                                       !- Frame and Divider Name
  1,                                      !- Multiplier
  ,                                       !- Number of Vertices
  0, 5.7286074912, 2.1336,                !- X,Y,Z Vertex 1 {m}
  0, 5.7286074912, 1.025227172808,        !- X,Y,Z Vertex 2 {m}
  0, 4.897119946152, 1.025227172808,      !- X,Y,Z Vertex 3 {m}
  0, 4.897119946152, 2.1336;              !- X,Y,Z Vertex 4 {m}

OS:Construction,
  {addfdb0b-028a-4deb-b6f2-e6e3b578a76b}, !- Handle
  Left-Glass,                             !- Name
  {c8fca152-4f02-4790-a663-206511ededc0}, !- Surface Rendering Name
  {2821880a-2776-4fcc-9936-34eb540cb9df}; !- Layer 1

OS:WindowMaterial:SimpleGlazingSystem,
  {2821880a-2776-4fcc-9936-34eb540cb9df}, !- Handle
  Left-Win,                               !- Name
  1.98076528277124,                       !- U-Factor {W/m2-K}
  0.309130645437316;                      !- Solar Heat Gain Coefficient

OS:Surface,
  {9e7bff29-6861-47d8-bc4a-a7b9b4854106}, !- Handle
  Wall5,                                  !- Name
  Wall,                                   !- Surface Type
  {fd52069d-c1f6-4b74-a019-8cf8cff9c59b}, !- Construction Name
  {a573d9d3-648d-405e-881d-ac9307ad71c0}, !- Space Name
  Outdoors,                               !- Outside Boundary Condition
  ,                                       !- Outside Boundary Condition Object
  SunExposed,                             !- Sun Exposure
  WindExposed,                            !- Wind Exposure
  ,                                       !- View Factor to Ground
  ,                                       !- Number of Vertices
  0, 7.3152, 2.4384,                      !- X,Y,Z Vertex 1 {m}
  0, 7.3152, 0,                           !- X,Y,Z Vertex 2 {m}
  0, 0, 0,                                !- X,Y,Z Vertex 3 {m}
  0, 0, 2.4384;                           !- X,Y,Z Vertex 4 {m}

OS:ThermalZone,
  {12db795d-a214-41fc-9a3f-576d699a3fed}, !- Handle
  crawlspace Thermal Zone,                !- Name
  1,                                      !- Multiplier
  1.2192,                                 !- Ceiling Height {m}
  103.299857856,                          !- Volume {m3}
  ,                                       !- Floor Area {m2}
  ,                                       !- Zone Inside Convection Algorithm
  ,                                       !- Zone Outside Convection Algorithm
  ,                                       !- Zone Conditioning Equipment List Name
  {2dff4538-b979-40d8-8f2d-e6d1c7854644}, !- Zone Air Inlet Port List
  {eec8b4cf-f31f-4c7f-b5e6-b36d14f56726}, !- Zone Air Exhaust Port List
  {23dff53a-ec00-4e39-89d9-dd133904b47c}, !- Zone Air Node Name
  ,                                       !- Zone Return Air Node Name
  ,                                       !- Primary Daylighting Control Name
  ,                                       !- Fraction of Zone Controlled by Primary Daylighting Control
  ,                                       !- Secondary Daylighting Control Name
  ,                                       !- Fraction of Zone Controlled by Secondary Daylighting Control
  ,                                       !- Illuminance Map Name
  {aa6e6e85-7d2c-4630-8c14-b7fe9163479d}, !- Group Rendering Name
  ,                                       !- Thermostat Name
  No,                                     !- Use Ideal Air Loads
  ;                                       !- Humidistat Name

OS:Node,
  {bddd52a9-494b-4307-b657-7cf17027990a}, !- Handle
  {54a1c51f-aaae-464d-a7b7-a9197ef3f3d9}, !- Name
  {23dff53a-ec00-4e39-89d9-dd133904b47c}, !- Inlet Port
  ;                                       !- Outlet Port

OS:Connection,
  {23dff53a-ec00-4e39-89d9-dd133904b47c}, !- Handle
  {cc48c1f6-c040-4dd4-84f4-75668a503d50}, !- Name
  {12db795d-a214-41fc-9a3f-576d699a3fed}, !- Source Object
  11,                                     !- Outlet Port
  {bddd52a9-494b-4307-b657-7cf17027990a}, !- Target Object
  2;                                      !- Inlet Port

OS:PortList,
  {2dff4538-b979-40d8-8f2d-e6d1c7854644}, !- Handle
  {1624b6c8-16e7-4a44-bc93-bfc357dc1728}, !- Name
  {12db795d-a214-41fc-9a3f-576d699a3fed}; !- HVAC Component

OS:PortList,
  {eec8b4cf-f31f-4c7f-b5e6-b36d14f56726}, !- Handle
  {305a21f9-412f-4f49-9b9c-cac89bfd5050}, !- Name
  {12db795d-a214-41fc-9a3f-576d699a3fed}; !- HVAC Component

OS:Sizing:Zone,
  {724641c1-5ede-4f72-8672-688d05b14199}, !- Handle
  {12db795d-a214-41fc-9a3f-576d699a3fed}, !- Zone or ZoneList Name
  14,                                     !- Zone Cooling Design Supply Air Temperature {C}
  40,                                     !- Zone Heating Design Supply Air Temperature {C}
  0.0085,                                 !- Zone Cooling Design Supply Air Humidity Ratio {kg-H2O/kg-air}
  0.008,                                  !- Zone Heating Design Supply Air Humidity Ratio {kg-H2O/kg-air}
  ,                                       !- Zone Heating Sizing Factor
  ,                                       !- Zone Cooling Sizing Factor
  DesignDay,                              !- Cooling Design Air Flow Method
  ,                                       !- Cooling Design Air Flow Rate {m3/s}
  ,                                       !- Cooling Minimum Air Flow per Zone Floor Area {m3/s-m2}
  ,                                       !- Cooling Minimum Air Flow {m3/s}
  ,                                       !- Cooling Minimum Air Flow Fraction