
OS:Version,
  {305e0cc5-22e4-4c52-9a2a-9fe5c501315a}, !- Handle
  2.1.1;                                  !- Version Identifier

OS:Building,
  {bf305633-c5a1-4881-9edf-ca5e1a8e1274}, !- Handle
  Building,                               !- Name
  ,                                       !- Building Sector Type
  ,                                       !- North Axis {deg}
  ,                                       !- Nominal Floor to Floor Height {m}
  ,                                       !- Space Type Name
  ,                                       !- Default Construction Set Name
  ,                                       !- Default Schedule Set Name
  4,                                      !- Standards Number of Stories
  3,                                      !- Standards Number of Above Ground Stories
  singlefamilydetached,                   !- Standards Building Type
  1;                                      !- Standards Number of Living Units

OS:YearDescription,
  {513d8dda-86cb-442a-b01c-1f7f0e0ac70e}; !- Handle

OS:SimulationControl,
  {2c487a4c-bac9-4ac5-b669-1e49d9da7c2b}, !- Handle
  ,                                       !- Do Zone Sizing Calculation
  ,                                       !- Do System Sizing Calculation
  ,                                       !- Do Plant Sizing Calculation
  No,                                     !- Run Simulation for Sizing Periods
  ;                                       !- Run Simulation for Weather File Run Periods

OS:Timestep,
  {4ebc9f1e-4707-402e-9844-67eb1ffbd522}, !- Handle
  6;                                      !- Number of Timesteps per Hour

OS:RunPeriod,
  {28df894d-6af9-4fb8-8f56-df1753344aa3}, !- Handle
  Run Period,                             !- Name
  1,                                      !- Begin Month
  1,                                      !- Begin Day of Month
  12,                                     !- End Month
  31,                                     !- End Day of Month
  ,                                       !- Use Weather File Holidays and Special Days
  ,                                       !- Use Weather File Daylight Saving Period
  ,                                       !- Apply Weekend Holiday Rule
  ,                                       !- Use Weather File Rain Indicators
  ,                                       !- Use Weather File Snow Indicators
  ;                                       !- Number of Times Runperiod to be Repeated

OS:Sizing:Parameters,
  {dde5af6f-7923-4600-a28a-7556673a0266}, !- Handle
  1.0,                                    !- Heating Sizing Factor
  1.0;                                    !- Cooling Sizing Factor

OS:ShadowCalculation,
  {ca758bea-4416-4626-9bba-3d8795c79bd6}, !- Handle
  20,                                     !- Calculation Frequency
  200;                                    !- Maximum Figures in Shadow Overlap Calculations

OS:SurfaceConvectionAlgorithm:Inside,
  {aaabfc36-718a-4ab0-b622-f186ebb45230}, !- Handle
  TARP;                                   !- Algorithm

OS:SurfaceConvectionAlgorithm:Outside,
  {9a0a9f6f-4bbd-4b12-a121-9492a1fcd7d6}, !- Handle
  DOE-2;                                  !- Algorithm

OS:HeatBalanceAlgorithm,
  {9d93e563-e1e0-46d7-9e39-d1c8aceb7212}, !- Handle
  ConductionTransferFunction,             !- Algorithm
  200;                                    !- Surface Temperature Upper Limit {C}

OS:ZoneCapacitanceMultiplier:ResearchSpecial,
  {6bfced16-b16f-47f6-8223-f7e267d75d19}, !- Handle
  ,                                       !- Temperature Capacity Multiplier
  15,                                     !- Humidity Capacity Multiplier
  ;                                       !- Carbon Dioxide Capacity Multiplier

OS:Site,
  {0936bc91-fdab-4b54-9ee3-e28890003825}, !- Handle
  Denver Intl Ap_CO_USA,                  !- Name
  39.83,                                  !- Latitude {deg}
  -104.65,                                !- Longitude {deg}
  -7,                                     !- Time Zone {hr}
  1650,                                   !- Elevation {m}
  ;                                       !- Terrain

OS:WeatherFile,
  {553f64cb-0fc4-403d-991b-ac05ab87c252}, !- Handle
  Denver Intl Ap,                         !- City
  CO,                                     !- State Province Region
  USA,                                    !- Country
  TMY3,                                   !- Data Source
  725650,                                 !- WMO Number
  39.83,                                  !- Latitude {deg}
  -104.65,                                !- Longitude {deg}
  -7,                                     !- Time Zone {hr}
  1650,                                   !- Elevation {m}
  file:///C:/Users/shorowit/Documents/GitHub/OpenStudio-BEopt/measures/ResidentialLocation/resources/USA_CO_Denver_Intl_AP_725650_TMY3.epw, !- Url
  E23378AA;                               !- Checksum

OS:ClimateZones,
  {7a5dfe18-738c-4f42-97e7-cad35fe9550c}, !- Handle
  ,                                       !- Active Institution
  ,                                       !- Active Year
  ,                                       !- Climate Zone Institution Name 1
  ,                                       !- Climate Zone Document Name 1
  ,                                       !- Climate Zone Document Year 1
  ,                                       !- Climate Zone Value 1
  Building America,                       !- Climate Zone Institution Name 2
  ,                                       !- Climate Zone Document Name 2
  0,                                      !- Climate Zone Document Year 2
  Cold;                                   !- Climate Zone Value 2

OS:Site:WaterMainsTemperature,
  {88932455-b7be-488d-951b-5fb6832f543a}, !- Handle
  Correlation,                            !- Calculation Method
  ,                                       !- Temperature Schedule Name
  10.8753424657535,                       !- Annual Average Outdoor Air Temperature {C}
  23.1524007936508;                       !- Maximum Difference In Monthly Average Outdoor Air Temperatures {deltaC}

OS:RunPeriodControl:DaylightSavingTime,
  {5f9213aa-0a47-48d9-b64d-8dce14f44a17}, !- Handle
  4/7,                                    !- Start Date
  10/26;                                  !- End Date

OS:Site:GroundTemperature:BuildingSurface,
  {846d52bf-c695-4969-98d4-9a5024aacc96}, !- Handle
  6.71220717182217,                       !- January Ground Temperature {C}
  4.94160315792055,                       !- February Ground Temperature {C}
  4.79814094732353,                       !- March Ground Temperature {C}
  5.63626323951138,                       !- April Ground Temperature {C}
  9.00496422788996,                       !- May Ground Temperature {C}
  12.3607918495591,                       !- June Ground Temperature {C}
  15.2732325604715,                       !- July Ground Temperature {C}
  17.1228426206644,                       !- August Ground Temperature {C}
  17.2883239591317,                       !- September Ground Temperature {C}
  15.7978912711895,                       !- October Ground Temperature {C}
  12.9685430093462,                       !- November Ground Temperature {C}
  9.71587840323366;                       !- December Ground Temperature {C}

OS:Site:GroundTemperature:Deep,
  {2683aa37-476e-4419-8f70-2cdd89f534dd}, !- Handle
  10.8753424657535,                       !- January Deep Ground Temperature {C}
  10.8753424657535,                       !- February Deep Ground Temperature {C}
  10.8753424657535,                       !- March Deep Ground Temperature {C}
  10.8753424657535,                       !- April Deep Ground Temperature {C}
  10.8753424657535,                       !- May Deep Ground Temperature {C}
  10.8753424657535,                       !- June Deep Ground Temperature {C}
  10.8753424657535,                       !- July Deep Ground Temperature {C}
  10.8753424657535,                       !- August Deep Ground Temperature {C}
  10.8753424657535,                       !- September Deep Ground Temperature {C}
  10.8753424657535,                       !- October Deep Ground Temperature {C}
  10.8753424657535,                       !- November Deep Ground Temperature {C}
  10.8753424657535;                       !- December Deep Ground Temperature {C}

OS:ThermalZone,
  {d8815ebc-91d2-421e-b225-762b92a83b8d}, !- Handle
  living zone,                            !- Name
  ,                                       !- Multiplier
  ,                                       !- Ceiling Height {m}
  ,                                       !- Volume {m3}
  ,                                       !- Floor Area {m2}
  ,                                       !- Zone Inside Convection Algorithm
  ,                                       !- Zone Outside Convection Algorithm
  ,                                       !- Zone Conditioning Equipment List Name
  {9657d9db-80ba-4a1a-a2db-869c2ad122ce}, !- Zone Air Inlet Port List
  {3f298d63-b59c-4f96-b5bd-cee76070879b}, !- Zone Air Exhaust Port List
  {29b3dbf9-ec68-4e2b-ba07-0f457c5d2fdb}, !- Zone Air Node Name
  ,                                       !- Zone Return Air Node Name
  ,                                       !- Primary Daylighting Control Name
  ,                                       !- Fraction of Zone Controlled by Primary Daylighting Control
  ,                                       !- Secondary Daylighting Control Name
  ,                                       !- Fraction of Zone Controlled by Secondary Daylighting Control
  ,                                       !- Illuminance Map Name
  ,                                       !- Group Rendering Name
  ,                                       !- Thermostat Name
  No;                                     !- Use Ideal Air Loads

OS:Node,
  {e5359db3-f0a5-489b-adac-442bd8582b8a}, !- Handle
  Node 1,                                 !- Name
  {29b3dbf9-ec68-4e2b-ba07-0f457c5d2fdb}, !- Inlet Port
  ;                                       !- Outlet Port

OS:Connection,
  {29b3dbf9-ec68-4e2b-ba07-0f457c5d2fdb}, !- Handle
  {e415112a-f09d-4b8d-871a-b2651739bfa3}, !- Name
  {d8815ebc-91d2-421e-b225-762b92a83b8d}, !- Source Object
  11,                                     !- Outlet Port
  {e5359db3-f0a5-489b-adac-442bd8582b8a}, !- Target Object
  2;                                      !- Inlet Port

OS:PortList,
  {9657d9db-80ba-4a1a-a2db-869c2ad122ce}, !- Handle
  Port List 1,                            !- Name
  {d8815ebc-91d2-421e-b225-762b92a83b8d}; !- HVAC Component

OS:PortList,
  {3f298d63-b59c-4f96-b5bd-cee76070879b}, !- Handle
  Port List 2,                            !- Name
  {d8815ebc-91d2-421e-b225-762b92a83b8d}; !- HVAC Component

OS:Sizing:Zone,
  {4a07a8bf-e698-4326-b201-12a190c8745c}, !- Handle
  {d8815ebc-91d2-421e-b225-762b92a83b8d}, !- Zone or ZoneList Name
  SupplyAirTemperature,                   !- Zone Cooling Design Supply Air Temperature Input Method
  14,                                     !- Zone Cooling Design Supply Air Temperature {C}
  11.11,                                  !- Zone Cooling Design Supply Air Temperature Difference {deltaC}
  SupplyAirTemperature,                   !- Zone Heating Design Supply Air Temperature Input Method
  40,                                     !- Zone Heating Design Supply Air Temperature {C}
  11.11,                                  !- Zone Heating Design Supply Air Temperature Difference {deltaC}
  0.0085,                                 !- Zone Cooling Design Supply Air Humidity Ratio {kg-H2O/kg-air}
  0.008,                                  !- Zone Heating Design Supply Air Humidity Ratio {kg-H2O/kg-air}
  ,                                       !- Zone Heating Sizing Factor
  ,                                       !- Zone Cooling Sizing Factor
  DesignDay,                              !- Cooling Design Air Flow Method
  ,                                       !- Cooling Design Air Flow Rate {m3/s}
  ,                                       !- Cooling Minimum Air Flow per Zone Floor Area {m3/s-m2}
  ,                                       !- Cooling Minimum Air Flow {m3/s}
  ,                                       !- Cooling Minimum Air Flow Fraction
  DesignDay,                              !- Heating Design Air Flow Method
  ,                                       !- Heating Design Air Flow Rate {m3/s}
  ,                                       !- Heating Maximum Air Flow per Zone Floor Area {m3/s-m2}
  ,                                       !- Heating Maximum Air Flow {m3/s}
  ,                                       !- Heating Maximum Air Flow Fraction
  ,                                       !- Design Zone Air Distribution Effectiveness in Cooling Mode
  ,                                       !- Design Zone Air Distribution Effectiveness in Heating Mode
  No,                                     !- Account for Dedicated Outdoor Air System
  NeutralSupplyAir,                       !- Dedicated Outdoor Air System Control Strategy
  autosize,                               !- Dedicated Outdoor Air Low Setpoint Temperature for Design {C}
  autosize;                               !- Dedicated Outdoor Air High Setpoint Temperature for Design {C}

OS:ZoneHVAC:EquipmentList,
  {a18c8c93-ebdf-40fd-8316-435dc37ee7cc}, !- Handle
  Zone HVAC Equipment List 1,             !- Name
  {d8815ebc-91d2-421e-b225-762b92a83b8d}; !- Thermal Zone

OS:ThermalZone,
  {87aee395-59cb-4548-a28f-889ba0a27b83}, !- Handle
  garage zone,                            !- Name
  ,                                       !- Multiplier
  ,                                       !- Ceiling Height {m}
  ,                                       !- Volume {m3}
  ,                                       !- Floor Area {m2}
  ,                                       !- Zone Inside Convection Algorithm
  ,                                       !- Zone Outside Convection Algorithm
  ,                                       !- Zone Conditioning Equipment List Name
  {2e2999a9-a674-46fd-a10b-71aca392e8d8}, !- Zone Air Inlet Port List
  {b2aea2fd-de98-40c2-8b5f-04d3f2551ac8}, !- Zone Air Exhaust Port List
  {eacfae5a-550c-40f6-ba36-4fe546ddcf2e}, !- Zone Air Node Name
  ,                                       !- Zone Return Air Node Name
  ,                                       !- Primary Daylighting Control Name
  ,                                       !- Fraction of Zone Controlled by Primary Daylighting Control
  ,                                       !- Secondary Daylighting Control Name
  ,                                       !- Fraction of Zone Controlled by Secondary Daylighting Control
  ,                                       !- Illuminance Map Name
  ,                                       !- Group Rendering Name
  ,                                       !- Thermostat Name
  No;                                     !- Use Ideal Air Loads

OS:Node,
  {318012cb-b10e-4d62-8e60-c898e3e4baa8}, !- Handle
  Node 2,                                 !- Name
  {eacfae5a-550c-40f6-ba36-4fe546ddcf2e}, !- Inlet Port
  ;                                       !- Outlet Port

OS:Connection,
  {eacfae5a-550c-40f6-ba36-4fe546ddcf2e}, !- Handle
  {04d2c38b-bfc7-4b53-9286-55c8b03dd90a}, !- Name
  {87aee395-59cb-4548-a28f-889ba0a27b83}, !- Source Object
  11,                                     !- Outlet Port
  {318012cb-b10e-4d62-8e60-c898e3e4baa8}, !- Target Object
  2;                                      !- Inlet Port

OS:PortList,
  {2e2999a9-a674-46fd-a10b-71aca392e8d8}, !- Handle
  Port List 3,                            !- Name
  {87aee395-59cb-4548-a28f-889ba0a27b83}; !- HVAC Component

OS:PortList,
  {b2aea2fd-de98-40c2-8b5f-04d3f2551ac8}, !- Handle
  Port List 4,                            !- Name
  {87aee395-59cb-4548-a28f-889ba0a27b83}; !- HVAC Component

OS:Sizing:Zone,
  {3b07956e-b85f-44f1-9f50-9f086bec1b88}, !- Handle
  {87aee395-59cb-4548-a28f-889ba0a27b83}, !- Zone or ZoneList Name
  SupplyAirTemperature,                   !- Zone Cooling Design Supply Air Temperature Input Method
  14,                                     !- Zone Cooling Design Supply Air Temperature {C}
  11.11,                                  !- Zone Cooling Design Supply Air Temperature Difference {deltaC}
  SupplyAirTemperature,                   !- Zone Heating Design Supply Air Temperature Input Method
  40,                                     !- Zone Heating Design Supply Air Temperature {C}
  11.11,                                  !- Zone Heating Design Supply Air Temperature Difference {deltaC}
  0.0085,                                 !- Zone Cooling Design Supply Air Humidity Ratio {kg-H2O/kg-air}
  0.008,                                  !- Zone Heating Design Supply Air Humidity Ratio {kg-H2O/kg-air}
  ,                                       !- Zone Heating Sizing Factor
  ,                                       !- Zone Cooling Sizing Factor
  DesignDay,                              !- Cooling Design Air Flow Method
  ,                                       !- Cooling Design Air Flow Rate {m3/s}
  ,                                       !- Cooling Minimum Air Flow per Zone Floor Area {m3/s-m2}
  ,                                       !- Cooling Minimum Air Flow {m3/s}
  ,                                       !- Cooling Minimum Air Flow Fraction
  DesignDay,                              !- Heating Design Air Flow Method
  ,                                       !- Heating Design Air Flow Rate {m3/s}
  ,                                       !- Heating Maximum Air Flow per Zone Floor Area {m3/s-m2}
  ,                                       !- Heating Maximum Air Flow {m3/s}
  ,                                       !- Heating Maximum Air Flow Fraction
  ,                                       !- Design Zone Air Distribution Effectiveness in Cooling Mode
  ,                                       !- Design Zone Air Distribution Effectiveness in Heating Mode
  No,                                     !- Account for Dedicated Outdoor Air System
  NeutralSupplyAir,                       !- Dedicated Outdoor Air System Control Strategy
  autosize,                               !- Dedicated Outdoor Air Low Setpoint Temperature for Design {C}
  autosize;                               !- Dedicated Outdoor Air High Setpoint Temperature for Design {C}

OS:ZoneHVAC:EquipmentList,
  {7bc4af97-b4bc-4b21-bb8a-4fa2545f1aa2}, !- Handle
  Zone HVAC Equipment List 2,             !- Name
  {87aee395-59cb-4548-a28f-889ba0a27b83}; !- Thermal Zone

OS:Space,
  {a2c2eb19-dc9b-463b-a73f-fa236707607b}, !- Handle
  garage space,                           !- Name
  ,                                       !- Space Type Name
  ,                                       !- Default Construction Set Name
  ,                                       !- Default Schedule Set Name
  -0,                                     !- Direction of Relative North {deg}
  0,                                      !- X Origin {m}
  0,                                      !- Y Origin {m}
  0,                                      !- Z Origin {m}
  ,                                       !- Building Story Name
  {87aee395-59cb-4548-a28f-889ba0a27b83}, !- Thermal Zone Name
  ,                                       !- Part of Total Floor Area
  ,                                       !- Design Specification Outdoor Air Object Name
  {a241674a-27e9-49d2-8bed-670ae6ee91c7}; !- Building Unit Name

OS:Surface,
  {98a3f7db-8add-4659-8eee-f5b34ecfd19c}, !- Handle
  Surface 1,                              !- Name
  Floor,                                  !- Surface Type
  {c200b43a-3246-4466-b0a6-712862f02943}, !- Construction Name
  {a2c2eb19-dc9b-463b-a73f-fa236707607b}, !- Space Name
  Ground,                                 !- Outside Boundary Condition
  ,                                       !- Outside Boundary Condition Object
  NoSun,                                  !- Sun Exposure
  NoWind,                                 !- Wind Exposure
  ,                                       !- View Factor to Ground
  ,                                       !- Number of Vertices
  7.6199999993904, -3.048, 0,             !- X,Y,Z Vertex 1 {m}
  7.6199999993904, 3.048, 0,              !- X,Y,Z Vertex 2 {m}
  11.2775999993904, 3.048, 0,             !- X,Y,Z Vertex 3 {m}
  11.2775999993904, -3.048, 0;            !- X,Y,Z Vertex 4 {m}

OS:Surface,
  {f9c2614e-e9ee-416d-9bd8-28106d11f4ad}, !- Handle
  Surface 2,                              !- Name
  Wall,                                   !- Surface Type
  {2e14949b-30cf-4824-aaa0-8310b4c1eab4}, !- Construction Name
  {a2c2eb19-dc9b-463b-a73f-fa236707607b}, !- Space Name
  Surface,                                !- Outside Boundary Condition
  {02460151-b1d5-4568-96ee-1fd7d280d961}, !- Outside Boundary Condition Object
  NoSun,                                  !- Sun Exposure
  NoWind,                                 !- Wind Exposure
  ,                                       !- View Factor to Ground
  ,                                       !- Number of Vertices
  7.6199999993904, 3.048, 2.4384,         !- X,Y,Z Vertex 1 {m}
  7.6199999993904, 3.048, 0,              !- X,Y,Z Vertex 2 {m}
  7.6199999993904, 0, 0,                  !- X,Y,Z Vertex 3 {m}
  7.6199999993904, 0, 2.4384;             !- X,Y,Z Vertex 4 {m}

OS:Surface,
  {42d5a015-dc20-479a-ab4f-f455d1591d9a}, !- Handle
  Surface 3,                              !- Name
  Wall,                                   !- Surface Type
  {2e14949b-30cf-4824-aaa0-8310b4c1eab4}, !- Construction Name
  {a2c2eb19-dc9b-463b-a73f-fa236707607b}, !- Space Name
  Surface,                                !- Outside Boundary Condition
  {3e3c1988-1ee5-4f07-9513-70cedd9c1424}, !- Outside Boundary Condition Object
  NoSun,                                  !- Sun Exposure
  NoWind,                                 !- Wind Exposure
  ,                                       !- View Factor to Ground
  ,                                       !- Number of Vertices
  11.2775999993904, 3.048, 2.4384,        !- X,Y,Z Vertex 1 {m}
  11.2775999993904, 3.048, 0,             !- X,Y,Z Vertex 2 {m}
  7.6199999993904, 3.048, 0,              !- X,Y,Z Vertex 3 {m}
  7.6199999993904, 3.048, 2.4384;         !- X,Y,Z Vertex 4 {m}

OS:Surface,
  {94e5dcbf-05d2-4d20-b97a-8724d0057349}, !- Handle
  Surface 4,                              !- Name
  Wall,                                   !- Surface Type
  {82c6d3da-f1aa-46da-9310-95ae0a9fd6af}, !- Construction Name
  {a2c2eb19-dc9b-463b-a73f-fa236707607b}, !- Space Name
  Outdoors,                               !- Outside Boundary Condition
  ,                                       !- Outside Boundary Condition Object
  SunExposed,                             !- Sun Exposure
  WindExposed,                            !- Wind Exposure
  ,                                       !- View Factor to Ground
  ,                                       !- Number of Vertices
  11.2775999993904, -3.048, 2.4384,       !- X,Y,Z Vertex 1 {m}
  11.2775999993904, -3.048, 0,            !- X,Y,Z Vertex 2 {m}
  11.2775999993904, 3.048, 0,             !- X,Y,Z Vertex 3 {m}
  11.2775999993904, 3.048, 2.4384;        !- X,Y,Z Vertex 4 {m}

OS:Surface,
  {ea676674-a940-40f1-b983-5e7bb5db2f32}, !- Handle
  Surface 5,                              !- Name
  Wall,                                   !- Surface Type
  {82c6d3da-f1aa-46da-9310-95ae0a9fd6af}, !- Construction Name
  {a2c2eb19-dc9b-463b-a73f-fa236707607b}, !- Space Name
  Outdoors,                               !- Outside Boundary Condition
  ,                                       !- Outside Boundary Condition Object
  SunExposed,                             !- Sun Exposure
  WindExposed,                            !- Wind Exposure
  ,                                       !- View Factor to Ground
  ,                                       !- Number of Vertices
  7.6199999993904, -3.048, 2.4384,        !- X,Y,Z Vertex 1 {m}
  7.6199999993904, -3.048, 0,             !- X,Y,Z Vertex 2 {m}
  11.2775999993904, -3.048, 0,            !- X,Y,Z Vertex 3 {m}
  11.2775999993904, -3.048, 2.4384;       !- X,Y,Z Vertex 4 {m}

OS:Surface,
  {0cbe994d-4b46-49ab-abd2-ad8339e8b6cb}, !- Handle
  Surface 6,                              !- Name
  RoofCeiling,                            !- Surface Type
  {436d3d73-dcfb-401c-953c-3182da9de0f6}, !- Construction Name
  {a2c2eb19-dc9b-463b-a73f-fa236707607b}, !- Space Name
  Surface,                                !- Outside Boundary Condition
  {54a175fa-a417-489f-90d4-bebce94da9cc}, !- Outside Boundary Condition Object
  NoSun,                                  !- Sun Exposure
  NoWind,                                 !- Wind Exposure
  ,                                       !- View Factor to Ground
  ,                                       !- Number of Vertices
  11.2775999993904, -3.048, 2.4384,       !- X,Y,Z Vertex 1 {m}
  11.2775999993904, 3.048, 2.4384,        !- X,Y,Z Vertex 2 {m}
  7.6199999993904, 3.048, 2.4384,         !- X,Y,Z Vertex 3 {m}
  7.6199999993904, -3.048, 2.4384;        !- X,Y,Z Vertex 4 {m}

OS:Space,
  {51f7dcbe-ac4d-4c7c-a615-5884b520f4fd}, !- Handle
  living space,                           !- Name
  ,                                       !- Space Type Name
  ,                                       !- Default Construction Set Name
  ,                                       !- Default Schedule Set Name
  -0,                                     !- Direction of Relative North {deg}
  0,                                      !- X Origin {m}
  0,                                      !- Y Origin {m}
  0,                                      !- Z Origin {m}
  ,                                       !- Building Story Name
  {d8815ebc-91d2-421e-b225-762b92a83b8d}, !- Thermal Zone Name
  ,                                       !- Part of Total Floor Area
  ,                                       !- Design Specification Outdoor Air Object Name
  {a241674a-27e9-49d2-8bed-670ae6ee91c7}; !- Building Unit Name

OS:Surface,
  {1a7f7e8a-b3d3-45df-aa5a-8f970829088b}, !- Handle
  Surface 7,                              !- Name
  Floor,                                  !- Surface Type
  {e38509b1-72db-4ade-9167-9f954165b83b}, !- Construction Name
  {51f7dcbe-ac4d-4c7c-a615-5884b520f4fd}, !- Space Name
  Surface,                                !- Outside Boundary Condition
  {5724d0b4-2a60-4823-bffc-b922e5d7b62d}, !- Outside Boundary Condition Object
  NoSun,                                  !- Sun Exposure
  NoWind,                                 !- Wind Exposure
  ,                                       !- View Factor to Ground
  ,                                       !- Number of Vertices
  0, 0, 0,                                !- X,Y,Z Vertex 1 {m}
  0, 7.01040000037894, 0,                 !- X,Y,Z Vertex 2 {m}
  11.2775999993904, 7.01040000037894, 0,  !- X,Y,Z Vertex 3 {m}
  11.2775999993904, 3.048, 0,             !- X,Y,Z Vertex 4 {m}
  7.6199999993904, 3.048, 0,              !- X,Y,Z Vertex 5 {m}
  7.6199999993904, 0, 0;                  !- X,Y,Z Vertex 6 {m}

OS:Surface,
  {d4341be0-0ca0-4fb7-9b98-189c3f001f69}, !- Handle
  Surface 8,                              !- Name
  Wall,                                   !- Surface Type
  {f1101f88-4af3-4ea9-b341-60b1de59116b}, !- Construction Name
  {51f7dcbe-ac4d-4c7c-a615-5884b520f4fd}, !- Space Name
  Outdoors,                               !- Outside Boundary Condition
  ,                                       !- Outside Boundary Condition Object
  SunExposed,                             !- Sun Exposure
  WindExposed,                            !- Wind Exposure
  ,                                       !- View Factor to Ground
  ,                                       !- Number of Vertices
  0, 7.01040000037894, 2.4384,            !- X,Y,Z Vertex 1 {m}
  0, 7.01040000037894, 0,                 !- X,Y,Z Vertex 2 {m}
  0, 0, 0,                                !- X,Y,Z Vertex 3 {m}
  0, 0, 2.4384;                           !- X,Y,Z Vertex 4 {m}

OS:Surface,
  {2e2d8e93-8539-4dd6-83b3-70645fe83de3}, !- Handle
  Surface 9,                              !- Name
  Wall,                                   !- Surface Type
  {f1101f88-4af3-4ea9-b341-60b1de59116b}, !- Construction Name
  {51f7dcbe-ac4d-4c7c-a615-5884b520f4fd}, !- Space Name
  Outdoors,                               !- Outside Boundary Condition
  ,                                       !- Outside Boundary Condition Object
  SunExposed,                             !- Sun Exposure
  WindExposed,                            !- Wind Exposure
  ,                                       !- View Factor to Ground
  ,                                       !- Number of Vertices
  11.2775999993904, 7.01040000037894, 2.4384, !- X,Y,Z Vertex 1 {m}
  11.2775999993904, 7.01040000037894, 0,  !- X,Y,Z Vertex 2 {m}
  0, 7.01040000037894, 0,                 !- X,Y,Z Vertex 3 {m}
  0, 7.01040000037894, 2.4384;            !- X,Y,Z Vertex 4 {m}

OS:Surface,
  {2f8c11f2-e3f8-486c-9cb8-24407f56857e}, !- Handle
  Surface 10,                             !- Name
  Wall,                                   !- Surface Type
  {f1101f88-4af3-4ea9-b341-60b1de59116b}, !- Construction Name
  {51f7dcbe-ac4d-4c7c-a615-5884b520f4fd}, !- Space Name
  Outdoors,                               !- Outside Boundary Condition
  ,                                       !- Outside Boundary Condition Object
  SunExposed,                             !- Sun Exposure
  WindExposed,                            !- Wind Exposure
  ,                                       !- View Factor to Ground
  ,                                       !- Number of Vertices
  11.2775999993904, 3.048, 2.4384,        !- X,Y,Z Vertex 1 {m}