
OS:Version,
  {923ed722-0473-4e04-a019-803c92bed2c1}, !- Handle
  1.3.1;                                  !- Version Identifier

OS:Construction,
  {a1937699-a845-49bf-8d85-4ec46b6dfefe}, !- Handle
  Triple-Pane High-Gain Low-E Insulated Frame Air Fill, !- Name
  ,                                       !- Surface Rendering Name
  {bfd2ea1e-1c99-422d-9e6a-aaf876fa74f4}; !- Layer 1

OS:WindowMaterial:SimpleGlazingSystem,
  {bfd2ea1e-1c99-422d-9e6a-aaf876fa74f4}, !- Handle
  Triple-Pane Glass,                      !- Name
  1.19057421741939,                       !- U-Factor {W/m2-K}
  0.401118750724206;                      !- Solar Heat Gain Coefficient

OS:StandardsInformation:Construction,
  {c08ca685-1c09-4af7-afcd-3696c210b7aa}, !- Handle
  {a1937699-a845-49bf-8d85-4ec46b6dfefe}, !- Construction Name
  ExteriorWindow;                         !- Intended Surface Type

OS:ComponentData,
  {4b31045d-5eb4-4345-88d0-a21d52879937}, !- Handle
  Component Data 1,                       !- Name
  {faf065a0-e153-4dee-ab8e-f76f2bd59cac}, !- UUID
  {79984bb5-5780-43ea-9c54-5422b68f02ec}, !- Version UUID
  1406055301,                             !- Creation Timestamp
  1406055301,                             !- Version Timestamp
  {a1937699-a845-49bf-8d85-4ec46b6dfefe}, !- Name of Object 1
  {bfd2ea1e-1c99-422d-9e6a-aaf876fa74f4}, !- Name of Object 2
  {c08ca685-1c09-4af7-afcd-3696c210b7aa}; !- Name of Object 3

