
OS:Version,
  {e5edd0cd-9b41-4a9d-bf57-f4fecf6c30ce}, !- Handle
  1.3.1;                                  !- Version Identifier

OS:WindowMaterial:SimpleGlazingSystem,
  {29756778-8c82-4f23-849c-a01c828a62f6}, !- Handle
  Triple-Pane Glass,                      !- Name
  1.19057421741939,                       !- U-Factor {W/m2-K}
  0.401118750724206;                      !- Solar Heat Gain Coefficient

OS:Construction,
  {210761b6-c96e-457b-8529-7e1d344ce5af}, !- Handle
  Triple-Pane High-Gain Low-E Insulated Frame Air Fill, !- Name
  ,                                       !- Surface Rendering Name
  {29756778-8c82-4f23-849c-a01c828a62f6}; !- Layer 1

OS:StandardsInformation:Construction,
  {c9f0b456-98c7-4bbf-b52f-a193200432d5}, !- Handle
  {210761b6-c96e-457b-8529-7e1d344ce5af}, !- Construction Name
  ExteriorWindow;                         !- Intended Surface Type

