
OS:Version,
  {f6e1a049-7070-4c4b-9756-efd150803903}, !- Handle
  1.3.1;                                  !- Version Identifier

OS:Construction,
  {6eefa768-680c-46ef-b822-83e4e0540468}, !- Handle
  ExtInsFinWall,                          !- Name
  ,                                       !- Surface Rendering Name
  {109e6e32-b73a-42cd-8080-f52561834405}, !- Layer 1
  {e886e904-7374-4ddc-bffd-ac222313bd04}, !- Layer 2
  {eea13523-5124-440f-8496-53add842fa08}, !- Layer 3
  {4d6036b2-7dc9-4c1a-8309-cf1eb3bc8926}; !- Layer 4

OS:Material,
  {109e6e32-b73a-42cd-8080-f52561834405}, !- Handle
  Exterior_Finish_Vinyl_Light,            !- Name
  Rough,                                  !- Roughness
  0.009525,                               !- Thickness {m}
  0.089435,                               !- Conductivity {W/m-K}
  177.822,                                !- Density {kg/m3}
  1046.75,                                !- Specific Heat {J/kg-K}
  0.9,                                    !- Thermal Absorptance
  0.3,                                    !- Solar Absorptance
  0.3;                                    !- Visible Absorptance

OS:Material,
  {4d6036b2-7dc9-4c1a-8309-cf1eb3bc8926}, !- Handle
  GypsumBoard_1_2in,                      !- Name
  Rough,                                  !- Roughness
  0.0127,                                 !- Thickness {m}
  0.1602906,                              !- Conductivity {W/m-K}
  801,                                    !- Density {kg/m3}
  837.4;                                  !- Specific Heat {J/kg-K}

OS:Material,
  {e886e904-7374-4ddc-bffd-ac222313bd04}, !- Handle
  CMU,                                    !- Name
  Rough,                                  !- Roughness
  0.2032,                                 !- Thickness {m}
  0.284117053906069,                      !- Conductivity {W/m-K}
  705.07224,                              !- Density {kg/m3}
  858.222742888303;                       !- Specific Heat {J/kg-K}

OS:Material,
  {eea13523-5124-440f-8496-53add842fa08}, !- Handle
  Furring,                                !- Name
  Rough,                                  !- Roughness
  0.0508,                                 !- Thickness {m}
  0.04084516645,                          !- Conductivity {W/m-K}
  110.3341455,                            !- Density {kg/m3}
  1154.52431712832;                       !- Specific Heat {J/kg-K}

