
OS:Version,
  {b29274c4-f8a2-4537-81fe-895b4f182be3}, !- Handle
  1.3.1;                                  !- Version Identifier

OS:Construction,
  {677fabeb-6fba-4888-9455-3c58669645ea}, !- Handle
  CSRimJoist,                             !- Name
  ,                                       !- Surface Rendering Name
  {be7e32a5-c3f1-445f-a919-ca08c91de504}, !- Layer 1
  {2805c7f1-4710-446a-9343-75baa7164dd1}, !- Layer 2
  {748968e8-d2d9-4822-abc2-ba2da9481529}; !- Layer 3

OS:Material,
  {be7e32a5-c3f1-445f-a919-ca08c91de504}, !- Handle
  Exterior_Finish_Vinyl_Light,            !- Name
  Rough,                                  !- Roughness
  0.009525,                               !- Thickness {m}
  0.089435,                               !- Conductivity {W/m-K}
  177.822,                                !- Density {kg/m3}
  1046.75,                                !- Specific Heat {J/kg-K}
  0.9,                                    !- Thermal Absorptance
  0.3,                                    !- Solar Absorptance
  0.3;                                    !- Visible Absorptance

OS:Material,
  {2805c7f1-4710-446a-9343-75baa7164dd1}, !- Handle
  Plywood_3_2in,                          !- Name
  Rough,                                  !- Roughness
  0.0381,                                 !- Thickness {m}
  0.1154577,                              !- Conductivity {W/m-K}
  512.64,                                 !- Density {kg/m3}
  1214.23;                                !- Specific Heat {J/kg-K}

OS:Material,
  {748968e8-d2d9-4822-abc2-ba2da9481529}, !- Handle
  CSJoistandCavity,                       !- Name
  Rough,                                  !- Roughness
  0.23495,                                !- Thickness {m}
  0.119955868932051,                      !- Conductivity {W/m-K}
  108.738954,                             !- Density {kg/m3}
  1149.39401785582;                       !- Specific Heat {J/kg-K}

