
OS:Version,
  {b94e3182-1532-4667-b7ad-8ea9f9733c53}, !- Handle
  1.3.1;                                  !- Version Identifier

OS:Construction,
  {5aabc7d5-488e-43ce-92f4-d8459a7b500b}, !- Handle
  ExtInsFinWall,                          !- Name
  ,                                       !- Surface Rendering Name
  {a2460d83-33a0-4396-ad87-2073da44b88a}, !- Layer 1
  {65ddef32-3ccc-4322-b3e5-f4db65210414}, !- Layer 2
  {b2cbcb22-3d1e-49bb-9a1b-331a60a948ac}, !- Layer 3
  {ee5b3046-3340-4ef0-a935-82ac08a2d0bb}; !- Layer 4

OS:Material,
  {a2460d83-33a0-4396-ad87-2073da44b88a}, !- Handle
  Exterior_Finish_Vinyl_Light,            !- Name
  Rough,                                  !- Roughness
  0.009525,                               !- Thickness {m}
  0.089435,                               !- Conductivity {W/m-K}
  177.822,                                !- Density {kg/m3}
  1046.75,                                !- Specific Heat {J/kg-K}
  0.9,                                    !- Thermal Absorptance
  0.3,                                    !- Solar Absorptance
  0.3;                                    !- Visible Absorptance

OS:Material,
  {65ddef32-3ccc-4322-b3e5-f4db65210414}, !- Handle
  Plywood_1_2in,                          !- Name
  Rough,                                  !- Roughness
  0.0127,                                 !- Thickness {m}
  0.1154577,                              !- Conductivity {W/m-K}
  512.64,                                 !- Density {kg/m3}
  1214.23;                                !- Specific Heat {J/kg-K}

OS:Material,
  {ee5b3046-3340-4ef0-a935-82ac08a2d0bb}, !- Handle
  GypsumBoard_1_2in,                      !- Name
  Rough,                                  !- Roughness
  0.0127,                                 !- Thickness {m}
  0.1602906,                              !- Conductivity {W/m-K}
  801,                                    !- Density {kg/m3}
  837.4;                                  !- Specific Heat {J/kg-K}

OS:Material,
  {b2cbcb22-3d1e-49bb-9a1b-331a60a948ac}, !- Handle
  StudandCavity,                          !- Name
  Rough,                                  !- Roughness
  0.1397,                                 !- Thickness {m}
  0.0591464135597939,                     !- Conductivity {W/m-K}
  148.39326,                              !- Density {kg/m3}
  1174.03696966425;                       !- Specific Heat {J/kg-K}

