
OS:Version,
  {a6dc6560-c13b-46c7-bb59-d6f4da67a778}, !- Handle
  1.3.1;                                  !- Version Identifier

OS:Construction,
  {20825dd5-2517-4633-bc77-8d1152617dd7}, !- Handle
  ExtInsFinWall,                          !- Name
  ,                                       !- Surface Rendering Name
  {3a219050-ab25-43c3-88e8-0ca64b43943c}, !- Layer 1
  {49e086f3-55ae-4593-8ae0-ca23fcfcf716}, !- Layer 2
  {3b205fc1-8fac-4097-a12d-5b859be15fd9}, !- Layer 3
  {427028bb-0999-49f7-bd76-285ebedd3734}, !- Layer 4
  {36f6ae6d-86b5-405b-8637-5554e62ed4f1}; !- Layer 5

OS:Material,
  {3a219050-ab25-43c3-88e8-0ca64b43943c}, !- Handle
  Exterior_Finish_Vinyl_Light,            !- Name
  Rough,                                  !- Roughness
  0.009525,                               !- Thickness {m}
  0.089435,                               !- Conductivity {W/m-K}
  177.822,                                !- Density {kg/m3}
  1046.75,                                !- Specific Heat {J/kg-K}
  0.9,                                    !- Thermal Absorptance
  0.3,                                    !- Solar Absorptance
  0.3;                                    !- Visible Absorptance

OS:Material,
  {36f6ae6d-86b5-405b-8637-5554e62ed4f1}, !- Handle
  GypsumBoard_1_2in,                      !- Name
  Rough,                                  !- Roughness
  0.0127,                                 !- Thickness {m}
  0.1602906,                              !- Conductivity {W/m-K}
  801,                                    !- Density {kg/m3}
  837.4;                                  !- Specific Heat {J/kg-K}

OS:Material,
  {49e086f3-55ae-4593-8ae0-ca23fcfcf716}, !- Handle
  Layer1,                                 !- Name
  Rough,                                  !- Roughness
  0.0635,                                 !- Thickness {m}
  1.32868675,                             !- Conductivity {W/m-K}
  2216.0466,                              !- Density {kg/m3}
  963.01;                                 !- Specific Heat {J/kg-K}

OS:Material,
  {3b205fc1-8fac-4097-a12d-5b859be15fd9}, !- Handle
  Layer2,                                 !- Name
  Rough,                                  !- Roughness
  0.0762,                                 !- Thickness {m}
  0.06130625,                             !- Conductivity {W/m-K}
  41.652,                                 !- Density {kg/m3}
  1172.36;                                !- Specific Heat {J/kg-K}

OS:Material,
  {427028bb-0999-49f7-bd76-285ebedd3734}, !- Handle
  Layer3,                                 !- Name
  Rough,                                  !- Roughness
  0.0635,                                 !- Thickness {m}
  1.07769175,                             !- Conductivity {W/m-K}
  2188.1718,                              !- Density {kg/m3}
  1172.36;                                !- Specific Heat {J/kg-K}

