!- NOTE: Auto-generated from /test/osw_files/MF_8units_1story_SL_Inset_Windows.osw

OS:Version,
  {7862a5c6-55ef-4bf8-9ca5-1cd625f9085a}, !- Handle
  1.14.0;                                  !- Version Identifier

OS:Building,
  {bf305633-c5a1-4881-9edf-ca5e1a8e1274}, !- Handle
  Building,                               !- Name
  ,                                       !- Building Sector Type
  ,                                       !- North Axis {deg}
  ,                                       !- Nominal Floor to Floor Height {m}
  ,                                       !- Space Type Name
  ,                                       !- Default Construction Set Name
  ,                                       !- Default Schedule Set Name
  1,                                      !- Standards Number of Stories
  1,                                      !- Standards Number of Above Ground Stories
  Multifamily,                            !- Standards Building Type
  8;                                      !- Standards Number of Living Units

OS:YearDescription,
  {513d8dda-86cb-442a-b01c-1f7f0e0ac70e}; !- Handle

OS:SimulationControl,
  {2c487a4c-bac9-4ac5-b669-1e49d9da7c2b}, !- Handle
  ,                                       !- Do Zone Sizing Calculation
  ,                                       !- Do System Sizing Calculation
  ,                                       !- Do Plant Sizing Calculation
  No,                                     !- Run Simulation for Sizing Periods
  ;                                       !- Run Simulation for Weather File Run Periods

OS:Timestep,
  {4ebc9f1e-4707-402e-9844-67eb1ffbd522}, !- Handle
  6;                                      !- Number of Timesteps per Hour

OS:RunPeriod,
  {28df894d-6af9-4fb8-8f56-df1753344aa3}, !- Handle
  Run Period,                             !- Name
  1,                                      !- Begin Month
  1,                                      !- Begin Day of Month
  12,                                     !- End Month
  31,                                     !- End Day of Month
  ,                                       !- Use Weather File Holidays and Special Days
  ,                                       !- Use Weather File Daylight Saving Period
  ,                                       !- Apply Weekend Holiday Rule
  ,                                       !- Use Weather File Rain Indicators
  ,                                       !- Use Weather File Snow Indicators
  ;                                       !- Number of Times Runperiod to be Repeated

OS:Sizing:Parameters,
  {dde5af6f-7923-4600-a28a-7556673a0266}, !- Handle
  1.0,                                    !- Heating Sizing Factor
  1.0;                                    !- Cooling Sizing Factor

OS:ShadowCalculation,
  {ca758bea-4416-4626-9bba-3d8795c79bd6}, !- Handle
  20,                                     !- Calculation Frequency
  200;                                    !- Maximum Figures in Shadow Overlap Calculations

OS:SurfaceConvectionAlgorithm:Inside,
  {aaabfc36-718a-4ab0-b622-f186ebb45230}, !- Handle
  TARP;                                   !- Algorithm

OS:SurfaceConvectionAlgorithm:Outside,
  {9a0a9f6f-4bbd-4b12-a121-9492a1fcd7d6}, !- Handle
  DOE-2;                                  !- Algorithm

OS:HeatBalanceAlgorithm,
  {9d93e563-e1e0-46d7-9e39-d1c8aceb7212}, !- Handle
  ConductionTransferFunction,             !- Algorithm
  200;                                    !- Surface Temperature Upper Limit {C}

OS:ZoneCapacitanceMultiplier:ResearchSpecial,
  {6bfced16-b16f-47f6-8223-f7e267d75d19}, !- Handle
  ,                                       !- Temperature Capacity Multiplier
  15,                                     !- Humidity Capacity Multiplier
  ;                                       !- Carbon Dioxide Capacity Multiplier

OS:ThermalZone,
  {ee2a139f-5304-45d3-b2df-1f1382008841}, !- Handle
  living zone,                            !- Name
  ,                                       !- Multiplier
  ,                                       !- Ceiling Height {m}
  ,                                       !- Volume {m3}
  ,                                       !- Floor Area {m2}
  ,                                       !- Zone Inside Convection Algorithm
  ,                                       !- Zone Outside Convection Algorithm
  ,                                       !- Zone Conditioning Equipment List Name
  {81ab7b84-1866-4048-be48-87392cad5e28}, !- Zone Air Inlet Port List
  {df825f3f-a4e7-40a4-a64e-7778214ee2ea}, !- Zone Air Exhaust Port List
  {2dd0adb8-d942-4b01-b223-ecf91ceff152}, !- Zone Air Node Name
  ,                                       !- Zone Return Air Node Name
  ,                                       !- Primary Daylighting Control Name
  ,                                       !- Fraction of Zone Controlled by Primary Daylighting Control
  ,                                       !- Secondary Daylighting Control Name
  ,                                       !- Fraction of Zone Controlled by Secondary Daylighting Control
  ,                                       !- Illuminance Map Name
  ,                                       !- Group Rendering Name
  ,                                       !- Thermostat Name
  No;                                     !- Use Ideal Air Loads

OS:Node,
  {5cc0fdd9-ae48-470f-821a-2c207aa62fd5}, !- Handle
  Node 1,                                 !- Name
  {2dd0adb8-d942-4b01-b223-ecf91ceff152}, !- Inlet Port
  ;                                       !- Outlet Port

OS:Connection,
  {2dd0adb8-d942-4b01-b223-ecf91ceff152}, !- Handle
  {c986becf-5c97-445c-b6b7-1eb2d1338f22}, !- Name
  {ee2a139f-5304-45d3-b2df-1f1382008841}, !- Source Object
  11,                                     !- Outlet Port
  {5cc0fdd9-ae48-470f-821a-2c207aa62fd5}, !- Target Object
  2;                                      !- Inlet Port

OS:PortList,
  {81ab7b84-1866-4048-be48-87392cad5e28}, !- Handle
  Port List 1,                            !- Name
  {ee2a139f-5304-45d3-b2df-1f1382008841}; !- HVAC Component

OS:PortList,
  {df825f3f-a4e7-40a4-a64e-7778214ee2ea}, !- Handle
  Port List 2,                            !- Name
  {ee2a139f-5304-45d3-b2df-1f1382008841}; !- HVAC Component

OS:Sizing:Zone,
  {3c6c2aee-5298-420c-9fab-ea6b275bbf2d}, !- Handle
  {ee2a139f-5304-45d3-b2df-1f1382008841}, !- Zone or ZoneList Name
  SupplyAirTemperature,                   !- Zone Cooling Design Supply Air Temperature Input Method
  14,                                     !- Zone Cooling Design Supply Air Temperature {C}
  11.11,                                  !- Zone Cooling Design Supply Air Temperature Difference {deltaC}
  SupplyAirTemperature,                   !- Zone Heating Design Supply Air Temperature Input Method
  40,                                     !- Zone Heating Design Supply Air Temperature {C}
  11.11,                                  !- Zone Heating Design Supply Air Temperature Difference {deltaC}
  0.0085,                                 !- Zone Cooling Design Supply Air Humidity Ratio {kg-H2O/kg-air}
  0.008,                                  !- Zone Heating Design Supply Air Humidity Ratio {kg-H2O/kg-air}
  ,                                       !- Zone Heating Sizing Factor
  ,                                       !- Zone Cooling Sizing Factor
  DesignDay,                              !- Cooling Design Air Flow Method
  ,                                       !- Cooling Design Air Flow Rate {m3/s}
  ,                                       !- Cooling Minimum Air Flow per Zone Floor Area {m3/s-m2}
  ,                                       !- Cooling Minimum Air Flow {m3/s}
  ,                                       !- Cooling Minimum Air Flow Fraction
  DesignDay,                              !- Heating Design Air Flow Method
  ,                                       !- Heating Design Air Flow Rate {m3/s}
  ,                                       !- Heating Maximum Air Flow per Zone Floor Area {m3/s-m2}
  ,                                       !- Heating Maximum Air Flow {m3/s}
  ,                                       !- Heating Maximum Air Flow Fraction
  ,                                       !- Design Zone Air Distribution Effectiveness in Cooling Mode
  ,                                       !- Design Zone Air Distribution Effectiveness in Heating Mode
  No,                                     !- Account for Dedicated Outdoor Air System
  NeutralSupplyAir,                       !- Dedicated Outdoor Air System Control Strategy
  autosize,                               !- Dedicated Outdoor Air Low Setpoint Temperature for Design {C}
  autosize;                               !- Dedicated Outdoor Air High Setpoint Temperature for Design {C}

OS:ZoneHVAC:EquipmentList,
  {a879d626-8068-4d8d-9fdf-d10657a78bca}, !- Handle
  Zone HVAC Equipment List 1,             !- Name
  {ee2a139f-5304-45d3-b2df-1f1382008841}; !- Thermal Zone

OS:Space,
  {e37f61c8-5c4b-4a47-b759-444a22432140}, !- Handle
  living space,                           !- Name
  ,                                       !- Space Type Name
  ,                                       !- Default Construction Set Name
  ,                                       !- Default Schedule Set Name
  ,                                       !- Direction of Relative North {deg}
  ,                                       !- X Origin {m}
  ,                                       !- Y Origin {m}
  ,                                       !- Z Origin {m}
  ,                                       !- Building Story Name
  {ee2a139f-5304-45d3-b2df-1f1382008841}, !- Thermal Zone Name
  ,                                       !- Part of Total Floor Area
  ,                                       !- Design Specification Outdoor Air Object Name
  {98456b18-05fb-4d16-bd2f-c7230fb204f7}; !- Building Unit Name

OS:Surface,
  {bf3b5962-dceb-4394-b802-66218286bf59}, !- Handle
  Surface 1,                              !- Name
  Floor,                                  !- Surface Type
  ,                                       !- Construction Name
  {e37f61c8-5c4b-4a47-b759-444a22432140}, !- Space Name
  Ground,                                 !- Outside Boundary Condition
  ,                                       !- Outside Boundary Condition Object
  NoSun,                                  !- Sun Exposure
  NoWind,                                 !- Wind Exposure
  ,                                       !- View Factor to Ground
  ,                                       !- Number of Vertices
  0, -13.1876643451371, 0,                !- X,Y,Z Vertex 1 {m}
  0, 0, 0,                                !- X,Y,Z Vertex 2 {m}
  6.59383217256854, 0, 0,                 !- X,Y,Z Vertex 3 {m}
  6.59383217256854, -11.3588643451371, 0, !- X,Y,Z Vertex 4 {m}
  4.76503217256854, -11.3588643451371, 0, !- X,Y,Z Vertex 5 {m}
  4.76503217256854, -13.1876643451371, 0; !- X,Y,Z Vertex 6 {m}

OS:Surface,
  {27fc0703-a5ae-4660-89e6-7390ae727a52}, !- Handle
  Surface 2,                              !- Name
  Wall,                                   !- Surface Type
  ,                                       !- Construction Name
  {e37f61c8-5c4b-4a47-b759-444a22432140}, !- Space Name
  Outdoors,                               !- Outside Boundary Condition
  ,                                       !- Outside Boundary Condition Object
  SunExposed,                             !- Sun Exposure
  WindExposed,                            !- Wind Exposure
  ,                                       !- View Factor to Ground
  ,                                       !- Number of Vertices
  0, 0, 2.4384,                           !- X,Y,Z Vertex 1 {m}
  0, 0, 0,                                !- X,Y,Z Vertex 2 {m}
  0, -13.1876643451371, 0,                !- X,Y,Z Vertex 3 {m}
  0, -13.1876643451371, 2.4384;           !- X,Y,Z Vertex 4 {m}

OS:Surface,
  {71f5eaa0-a776-4b4c-aaca-d4bbbf34a919}, !- Handle
  Surface 3,                              !- Name
  Wall,                                   !- Surface Type
  ,                                       !- Construction Name
  {e37f61c8-5c4b-4a47-b759-444a22432140}, !- Space Name
  Adiabatic,                              !- Outside Boundary Condition
  ,                                       !- Outside Boundary Condition Object
  NoSun,                                  !- Sun Exposure
  NoWind,                                 !- Wind Exposure
  ,                                       !- View Factor to Ground
  ,                                       !- Number of Vertices
  6.59383217256854, 0, 2.4384,            !- X,Y,Z Vertex 1 {m}
  6.59383217256854, 0, 0,                 !- X,Y,Z Vertex 2 {m}
  0, 0, 0,                                !- X,Y,Z Vertex 3 {m}
  0, 0, 2.4384;                           !- X,Y,Z Vertex 4 {m}

OS:Surface,
  {38ecaa69-195b-49bd-8507-98ec52c3f9fc}, !- Handle
  Surface 4,                              !- Name
  Wall,                                   !- Surface Type
  ,                                       !- Construction Name
  {e37f61c8-5c4b-4a47-b759-444a22432140}, !- Space Name
  Surface,                                !- Outside Boundary Condition
  {7a7c9656-33c1-44e8-a752-a9074272f366}, !- Outside Boundary Condition Object
  NoSun,                                  !- Sun Exposure
  NoWind,                                 !- Wind Exposure
  ,                                       !- View Factor to Ground
  ,                                       !- Number of Vertices
  6.59383217256854, -11.3588643451371, 2.4384, !- X,Y,Z Vertex 1 {m}
  6.59383217256854, -11.3588643451371, 0, !- X,Y,Z Vertex 2 {m}
  6.59383217256854, 0, 0,                 !- X,Y,Z Vertex 3 {m}
  6.59383217256854, 0, 2.4384;            !- X,Y,Z Vertex 4 {m}

OS:Surface,
  {d8117d7c-a36a-403d-9f8c-38f11f054c2f}, !- Handle
  Surface 5,                              !- Name
  Wall,                                   !- Surface Type
  ,                                       !- Construction Name
  {e37f61c8-5c4b-4a47-b759-444a22432140}, !- Space Name
  Outdoors,                               !- Outside Boundary Condition
  ,                                       !- Outside Boundary Condition Object
  SunExposed,                             !- Sun Exposure
  WindExposed,                            !- Wind Exposure
  ,                                       !- View Factor to Ground
  ,                                       !- Number of Vertices
  4.76503217256854, -11.3588643451371, 2.4384, !- X,Y,Z Vertex 1 {m}
  4.76503217256854, -11.3588643451371, 0, !- X,Y,Z Vertex 2 {m}
  6.59383217256854, -11.3588643451371, 0, !- X,Y,Z Vertex 3 {m}
  6.59383217256854, -11.3588643451371, 2.4384; !- X,Y,Z Vertex 4 {m}

OS:Surface,
  {b8a053ad-e5bb-4536-a111-4e29cb32f299}, !- Handle
  Surface 6,                              !- Name
  Wall,                                   !- Surface Type
  ,                                       !- Construction Name
  {e37f61c8-5c4b-4a47-b759-444a22432140}, !- Space Name
  Outdoors,                               !- Outside Boundary Condition
  ,                                       !- Outside Boundary Condition Object
  SunExposed,                             !- Sun Exposure
  WindExposed,                            !- Wind Exposure
  ,                                       !- View Factor to Ground
  ,                                       !- Number of Vertices
  4.76503217256854, -13.1876643451371, 2.4384, !- X,Y,Z Vertex 1 {m}
  4.76503217256854, -13.1876643451371, 0, !- X,Y,Z Vertex 2 {m}
  4.76503217256854, -11.3588643451371, 0, !- X,Y,Z Vertex 3 {m}
  4.76503217256854, -11.3588643451371, 2.4384; !- X,Y,Z Vertex 4 {m}

OS:Surface,
  {d94bc5fc-a0e5-4d41-aeab-512aa709ed92}, !- Handle
  Surface 7,                              !- Name
  Wall,                                   !- Surface Type
  ,                                       !- Construction Name
  {e37f61c8-5c4b-4a47-b759-444a22432140}, !- Space Name
  Outdoors,                               !- Outside Boundary Condition
  ,                                       !- Outside Boundary Condition Object
  SunExposed,                             !- Sun Exposure
  WindExposed,                            !- Wind Exposure
  ,                                       !- View Factor to Ground
  ,                                       !- Number of Vertices
  0, -13.1876643451371, 2.4384,           !- X,Y,Z Vertex 1 {m}
  0, -13.1876643451371, 0,                !- X,Y,Z Vertex 2 {m}
  4.76503217256854, -13.1876643451371, 0, !- X,Y,Z Vertex 3 {m}
  4.76503217256854, -13.1876643451371, 2.4384; !- X,Y,Z Vertex 4 {m}

OS:Surface,
  {ad358da6-d2e8-4f58-aabd-05527798ca2d}, !- Handle
  Surface 8,                              !- Name
  RoofCeiling,                            !- Surface Type
  ,                                       !- Construction Name
  {e37f61c8-5c4b-4a47-b759-444a22432140}, !- Space Name
  Outdoors,                               !- Outside Boundary Condition
  ,                                       !- Outside Boundary Condition Object
  SunExposed,                             !- Sun Exposure
  WindExposed,                            !- Wind Exposure
  ,                                       !- View Factor to Ground
  ,                                       !- Number of Vertices
  4.76503217256854, -13.1876643451371, 2.4384, !- X,Y,Z Vertex 1 {m}
  4.76503217256854, -11.3588643451371, 2.4384, !- X,Y,Z Vertex 2 {m}
  6.59383217256854, -11.3588643451371, 2.4384, !- X,Y,Z Vertex 3 {m}
  6.59383217256854, 0, 2.4384,            !- X,Y,Z Vertex 4 {m}
  0, 0, 2.4384,                           !- X,Y,Z Vertex 5 {m}
  0, -13.1876643451371, 2.4384;           !- X,Y,Z Vertex 6 {m}

OS:ThermalZone,
  {71fcee40-7d2f-490d-aa59-de3b6f85938e}, !- Handle
  living zone|unit 2,                     !- Name
  ,                                       !- Multiplier
  ,                                       !- Ceiling Height {m}
  ,                                       !- Volume {m3}
  ,                                       !- Floor Area {m2}
  ,                                       !- Zone Inside Convection Algorithm
  ,                                       !- Zone Outside Convection Algorithm
  ,                                       !- Zone Conditioning Equipment List Name
  {4fe327fc-4dbc-42d3-a848-cf1d2b6b7213}, !- Zone Air Inlet Port List
  {e343ecfc-d602-47fe-a0f5-3fb2f0464e55}, !- Zone Air Exhaust Port List
  {20b624d4-d3b2-4204-a01f-d5991ad3cf18}, !- Zone Air Node Name
  ,                                       !- Zone Return Air Node Name
  ,                                       !- Primary Daylighting Control Name
  ,                                       !- Fraction of Zone Controlled by Primary Daylighting Control
  ,                                       !- Secondary Daylighting Control Name
  ,                                       !- Fraction of Zone Controlled by Secondary Daylighting Control
  ,                                       !- Illuminance Map Name
  ,                                       !- Group Rendering Name
  ,                                       !- Thermostat Name
  No;                                     !- Use Ideal Air Loads

OS:Node,
  {6e6025be-b70b-42a6-8ead-bf8a1c089e41}, !- Handle
  Node 2,                                 !- Name
  {20b624d4-d3b2-4204-a01f-d5991ad3cf18}, !- Inlet Port
  ;                                       !- Outlet Port

OS:Connection,
  {20b624d4-d3b2-4204-a01f-d5991ad3cf18}, !- Handle
  {2d0b8277-73c0-4657-9bf6-56e65f138c4b}, !- Name
  {71fcee40-7d2f-490d-aa59-de3b6f85938e}, !- Source Object
  11,                                     !- Outlet Port
  {6e6025be-b70b-42a6-8ead-bf8a1c089e41}, !- Target Object
  2;                                      !- Inlet Port

OS:PortList,
  {4fe327fc-4dbc-42d3-a848-cf1d2b6b7213}, !- Handle
  Port List 3,                            !- Name
  {71fcee40-7d2f-490d-aa59-de3b6f85938e}; !- HVAC Component

OS:PortList,
  {e343ecfc-d602-47fe-a0f5-3fb2f0464e55}, !- Handle
  Port List 4,                            !- Name
  {71fcee40-7d2f-490d-aa59-de3b6f85938e}; !- HVAC Component

OS:Sizing:Zone,
  {18bd9060-3d29-4382-ab16-6cc05d82fab6}, !- Handle
  {71fcee40-7d2f-490d-aa59-de3b6f85938e}, !- Zone or ZoneList Name
  SupplyAirTemperature,                   !- Zone Cooling Design Supply Air Temperature Input Method
  14,                                     !- Zone Cooling Design Supply Air Temperature {C}
  11.11,                                  !- Zone Cooling Design Supply Air Temperature Difference {deltaC}
  SupplyAirTemperature,                   !- Zone Heating Design Supply Air Temperature Input Method
  40,                                     !- Zone Heating Design Supply Air Temperature {C}
  11.11,                                  !- Zone Heating Design Supply Air Temperature Difference {deltaC}
  0.0085,                                 !- Zone Cooling Design Supply Air Humidity Ratio {kg-H2O/kg-air}
  0.008,                                  !- Zone Heating Design Supply Air Humidity Ratio {kg-H2O/kg-air}
  ,                                       !- Zone Heating Sizing Factor
  ,                                       !- Zone Cooling Sizing Factor
  DesignDay,                              !- Cooling Design Air Flow Method
  ,                                       !- Cooling Design Air Flow Rate {m3/s}
  ,                                       !- Cooling Minimum Air Flow per Zone Floor Area {m3/s-m2}
  ,                                       !- Cooling Minimum Air Flow {m3/s}
  ,                                       !- Cooling Minimum Air Flow Fraction
  DesignDay,                              !- Heating Design Air Flow Method
  ,                                       !- Heating Design Air Flow Rate {m3/s}
  ,                                       !- Heating Maximum Air Flow per Zone Floor Area {m3/s-m2}
  ,                                       !- Heating Maximum Air Flow {m3/s}
  ,                                       !- Heating Maximum Air Flow Fraction
  ,                                       !- Design Zone Air Distribution Effectiveness in Cooling Mode
  ,                                       !- Design Zone Air Distribution Effectiveness in Heating Mode
  No,                                     !- Account for Dedicated Outdoor Air System
  NeutralSupplyAir,                       !- Dedicated Outdoor Air System Control Strategy
  autosize,                               !- Dedicated Outdoor Air Low Setpoint Temperature for Design {C}
  autosize;                               !- Dedicated Outdoor Air High Setpoint Temperature for Design {C}

OS:ZoneHVAC:EquipmentList,
  {8eaa7ee9-308d-45d5-82ca-d4dfc952f00c}, !- Handle
  Zone HVAC Equipment List 2,             !- Name
  {71fcee40-7d2f-490d-aa59-de3b6f85938e}; !- Thermal Zone

OS:Space,
  {8857b406-1841-4265-9356-1a1eae61c39b}, !- Handle
  living space|unit 2,                    !- Name
  ,                                       !- Space Type Name
  ,                                       !- Default Construction Set Name
  ,                                       !- Default Schedule Set Name
  ,                                       !- Direction of Relative North {deg}
  ,                                       !- X Origin {m}
  ,                                       !- Y Origin {m}
  ,                                       !- Z Origin {m}
  ,                                       !- Building Story Name
  {71fcee40-7d2f-490d-aa59-de3b6f85938e}, !- Thermal Zone Name
  ,                                       !- Part of Total Floor Area
  ,                                       !- Design Specification Outdoor Air Object Name
  {53337a1d-81f4-4583-950c-facd4528b136}; !- Building Unit Name

OS:Surface,
  {30744b5d-d779-435d-9102-3f8a103ec53b}, !- Handle
  Surface 9,                              !- Name
  Floor,                                  !- Surface Type
  ,                                       !- Construction Name
  {8857b406-1841-4265-9356-1a1eae61c39b}, !- Space Name
  Ground,                                 !- Outside Boundary Condition
  ,                                       !- Outside Boundary Condition Object
  NoSun,                                  !- Sun Exposure
  NoWind,                                 !- Wind Exposure
  ,                                       !- View Factor to Ground
  ,                                       !- Number of Vertices
  0, 14.4068643451371, 0,                 !- X,Y,Z Vertex 1 {m}
  1.8288, 14.4068643451371, 0,            !- X,Y,Z Vertex 2 {m}
  1.8288, 16.2356643451371, 0,            !- X,Y,Z Vertex 3 {m}
  6.59383217256854, 16.2356643451371, 0,  !- X,Y,Z Vertex 4 {m}
  6.59383217256854, 3.048, 0,             !- X,Y,Z Vertex 5 {m}
  0, 3.048, 0;                            !- X,Y,Z Vertex 6 {m}

OS:Surface,
  {648c1263-1924-408c-b8ec-068de352a2f1}, !- Handle
  Surface 10,                             !- Name
  Wall,                                   !- Surface Type
  ,                                       !- Construction Name
  {8857b406-1841-4265-9356-1a1eae61c39b}, !- Space Name
  Outdoors,                               !- Outside Boundary Condition
  ,                                       !- Outside Boundary Condition Object
  SunExposed,                             !- Sun Exposure
  WindExposed,                            !- Wind Exposure
  ,                                       !- View Factor to Ground
  ,                                       !- Number of Vertices
  1.8288, 14.4068643451371, 2.4384,       !- X,Y,Z Vertex 1 {m}
  1.8288, 14.4068643451371, 0,            !- X,Y,Z Vertex 2 {m}
  0, 14.4068643451371, 0,                 !- X,Y,Z Vertex 3 {m}
  0, 14.4068643451371, 2.4384;            !- X,Y,Z Vertex 4 {m}

OS:Surface,
  {6b088ff0-dc14-4e87-bb2a-3797b8e34258}, !- Handle
  Surface 11,                             !- Name
  Wall,                                   !- Surface Type
  ,                                       !- Construction Name
  {8857b406-1841-4265-9356-1a1eae61c39b}, !- Space Name
  Outdoors,                               !- Outside Boundary Condition
  ,                                       !- Outside Boundary Condition Object
  SunExposed,                             !- Sun Exposure
  WindExposed,                            !- Wind Exposure
  ,                                       !- View Factor to Ground
  ,                                       !- Number of Vertices
  1.8288, 16.2356643451371, 2.4384,       !- X,Y,Z Vertex 1 {m}
  1.8288, 16.2356643451371, 0,            !- X,Y,Z Vertex 2 {m}
  1.8288, 14.4068643451371, 0,            !- X,Y,Z Vertex 3 {m}
  1.8288, 14.4068643451371, 2.4384;       !- X,Y,Z Vertex 4 {m}

OS:Surface,
  {5b713601-91de-4117-99ae-aa1e3d4c1ae5}, !- Handle
  Surface 12,                             !- Name
  Wall,                                   !- Surface Type
  ,                                       !- Construction Name
  {8857b406-1841-4265-9356-1a1eae61c39b}, !- Space Name
  Outdoors,                               !- Outside Boundary Condition
  ,                                       !- Outside Boundary Condition Object
  SunExposed,                             !- Sun Exposure
  WindExposed,                            !- Wind Exposure
  ,                                       !- View Factor to Ground
  ,                                       !- Number of Vertices
  6.59383217256854, 16.2356643451371, 2.4384, !- X,Y,Z Vertex 1 {m}
  6.59383217256854, 16.2356643451371, 0,  !- X,Y,Z Vertex 2 {m}
  1.8288, 16.2356643451371, 0,            !- X,Y,Z Vertex 3 {m}
  1.8288, 16.2356643451371, 2.4384;       !- X,Y,Z Vertex 4 {m}

OS:Surface,
  {23355812-5a45-495a-b5ab-732c5e836fef}, !- Handle
  Surface 13,                             !- Name
  Wall,                                   !- Surface Type
  ,                                       !- Construction Name
  {8857b406-1841-4265-9356-1a1eae61c39b}, !- Space Name
  Surface,                                !- Outside Boundary Condition
  {b3031000-c7f6-46d7-9d13-6f4950c3b80c}, !- Outside Boundary Condition Object
  NoSun,                                  !- Sun Exposure
  NoWind,                                 !- Wind Exposure
  ,                                       !- View Factor to Ground
  ,                                       !- Number of Vertices
  6.59383217256854, 3.048, 2.4384,        !- X,Y,Z Vertex 1 {m}
  6.59383217256854, 3.048, 0,             !- X,Y,Z Vertex 2 {m}
  6.59383217256854, 14.4068643451371, 0,  !- X,Y,Z Vertex 3 {m}
  6.59383217256854, 14.4068643451371, 2.4384; !- X,Y,Z Vertex 4 {m}

OS:Surface,
  {7790cb9e-f62c-4612-8086-8db1f4442d1f}, !- Handle
  Surface 14,                             !- Name
  Wall,                                   !- Surface Type
  ,                                       !- Construction Name
  {8857b406-1841-4265-9356-1a1eae61c39b}, !- Space Name
  Adiabatic,                              !- Outside Boundary Condition
  ,                                       !- Outside Boundary Condition Object
  NoSun,                                  !- Sun Exposure
  NoWind,                                 !- Wind Exposure
  ,                                       !- View Factor to Ground
  ,                                       !- Number of Vertices
  0, 3.048, 2.4384,                       !- X,Y,Z Vertex 1 {m}
  0, 3.048, 0,                            !- X,Y,Z Vertex 2 {m}
  6.59383217256854, 3.048, 0,             !- X,Y,Z Vertex 3 {m}
  6.59383217256854, 3.048, 2.4384;        !- X,Y,Z Vertex 4 {m}

OS:Surface,
  {c88827d8-284d-4437-82ad-c531827a93ce}, !- Handle
  Surface 15,                             !- Name
  Wall,                                   !- Surface Type
  ,                                       !- Construction Name
  {8857b406-1841-4265-9356-1a1eae61c39b}, !- Space Name