
OS:Version,
  {646ffe09-a9a9-4495-9c99-9399171cd87d}, !- Handle
  1.3.1;                                  !- Version Identifier

OS:Construction,
  {32d8e750-56f7-4acf-816a-445d497364e4}, !- Handle
  CSRimJoist,                             !- Name
  ,                                       !- Surface Rendering Name
  {677368be-4cf7-4b6a-9a4a-e8c2cd116fd8}, !- Layer 1
  {08aeee4e-a063-496a-8a98-f476a16cfda4}, !- Layer 2
  {b4557bb7-3607-48c3-91de-258792004e8b}; !- Layer 3

OS:Material,
  {677368be-4cf7-4b6a-9a4a-e8c2cd116fd8}, !- Handle
  Exterior_Finish_Vinyl_Light,            !- Name
  Rough,                                  !- Roughness
  0.009525,                               !- Thickness {m}
  0.089435,                               !- Conductivity {W/m-K}
  177.822,                                !- Density {kg/m3}
  1046.75,                                !- Specific Heat {J/kg-K}
  0.9,                                    !- Thermal Absorptance
  0.3,                                    !- Solar Absorptance
  0.3;                                    !- Visible Absorptance

OS:Material,
  {08aeee4e-a063-496a-8a98-f476a16cfda4}, !- Handle
  Plywood_3_2in,                          !- Name
  Rough,                                  !- Roughness
  0.0381,                                 !- Thickness {m}
  0.1154577,                              !- Conductivity {W/m-K}
  512.64,                                 !- Density {kg/m3}
  1214.23;                                !- Specific Heat {J/kg-K}

OS:Material,
  {b4557bb7-3607-48c3-91de-258792004e8b}, !- Handle
  CSJoistandCavity,                       !- Name
  Rough,                                  !- Roughness
  0.23495,                                !- Thickness {m}
  0.0695596794908662,                     !- Conductivity {W/m-K}
  108.738954,                             !- Density {kg/m3}
  1149.39401785582;                       !- Specific Heat {J/kg-K}

