!- NOTE: Auto-generated from /test/osw_files/MF_8units_1story_SL_Windows.osw

OS:Version,
  {2b37d9e8-c8b1-498d-8db8-0895ce083855}, !- Handle
  1.14.0;                                  !- Version Identifier

OS:Building,
  {bf305633-c5a1-4881-9edf-ca5e1a8e1274}, !- Handle
  Building,                               !- Name
  ,                                       !- Building Sector Type
  ,                                       !- North Axis {deg}
  ,                                       !- Nominal Floor to Floor Height {m}
  ,                                       !- Space Type Name
  ,                                       !- Default Construction Set Name
  ,                                       !- Default Schedule Set Name
  1,                                      !- Standards Number of Stories
  1,                                      !- Standards Number of Above Ground Stories
  multifamily,                            !- Standards Building Type
  8;                                      !- Standards Number of Living Units

OS:YearDescription,
  {513d8dda-86cb-442a-b01c-1f7f0e0ac70e}; !- Handle

OS:SimulationControl,
  {2c487a4c-bac9-4ac5-b669-1e49d9da7c2b}, !- Handle
  ,                                       !- Do Zone Sizing Calculation
  ,                                       !- Do System Sizing Calculation
  ,                                       !- Do Plant Sizing Calculation
  No,                                     !- Run Simulation for Sizing Periods
  ;                                       !- Run Simulation for Weather File Run Periods

OS:Timestep,
  {4ebc9f1e-4707-402e-9844-67eb1ffbd522}, !- Handle
  6;                                      !- Number of Timesteps per Hour

OS:RunPeriod,
  {28df894d-6af9-4fb8-8f56-df1753344aa3}, !- Handle
  Run Period,                             !- Name
  1,                                      !- Begin Month
  1,                                      !- Begin Day of Month
  12,                                     !- End Month
  31,                                     !- End Day of Month
  ,                                       !- Use Weather File Holidays and Special Days
  ,                                       !- Use Weather File Daylight Saving Period
  ,                                       !- Apply Weekend Holiday Rule
  ,                                       !- Use Weather File Rain Indicators
  ,                                       !- Use Weather File Snow Indicators
  ;                                       !- Number of Times Runperiod to be Repeated

OS:Sizing:Parameters,
  {dde5af6f-7923-4600-a28a-7556673a0266}, !- Handle
  1.0,                                    !- Heating Sizing Factor
  1.0;                                    !- Cooling Sizing Factor

OS:ShadowCalculation,
  {ca758bea-4416-4626-9bba-3d8795c79bd6}, !- Handle
  20,                                     !- Calculation Frequency
  200;                                    !- Maximum Figures in Shadow Overlap Calculations

OS:SurfaceConvectionAlgorithm:Inside,
  {aaabfc36-718a-4ab0-b622-f186ebb45230}, !- Handle
  TARP;                                   !- Algorithm

OS:SurfaceConvectionAlgorithm:Outside,
  {9a0a9f6f-4bbd-4b12-a121-9492a1fcd7d6}, !- Handle
  DOE-2;                                  !- Algorithm

OS:HeatBalanceAlgorithm,
  {9d93e563-e1e0-46d7-9e39-d1c8aceb7212}, !- Handle
  ConductionTransferFunction,             !- Algorithm
  200;                                    !- Surface Temperature Upper Limit {C}

OS:ZoneCapacitanceMultiplier:ResearchSpecial,
  {6bfced16-b16f-47f6-8223-f7e267d75d19}, !- Handle
  ,                                       !- Temperature Capacity Multiplier
  15,                                     !- Humidity Capacity Multiplier
  ;                                       !- Carbon Dioxide Capacity Multiplier

OS:ThermalZone,
  {c511b503-cf03-4af0-ab52-aca9a23c969a}, !- Handle
  living zone,                            !- Name
  ,                                       !- Multiplier
  ,                                       !- Ceiling Height {m}
  ,                                       !- Volume {m3}
  ,                                       !- Floor Area {m2}
  ,                                       !- Zone Inside Convection Algorithm
  ,                                       !- Zone Outside Convection Algorithm
  ,                                       !- Zone Conditioning Equipment List Name
  {d6b14567-ae6b-4440-b7f8-b34e74880c3e}, !- Zone Air Inlet Port List
  {a592357c-e6ff-4500-b912-29bb447a7e6b}, !- Zone Air Exhaust Port List
  {355698dd-425e-4e05-890d-dd147fcb803e}, !- Zone Air Node Name
  ,                                       !- Zone Return Air Node Name
  ,                                       !- Primary Daylighting Control Name
  ,                                       !- Fraction of Zone Controlled by Primary Daylighting Control
  ,                                       !- Secondary Daylighting Control Name
  ,                                       !- Fraction of Zone Controlled by Secondary Daylighting Control
  ,                                       !- Illuminance Map Name
  ,                                       !- Group Rendering Name
  ,                                       !- Thermostat Name
  No;                                     !- Use Ideal Air Loads

OS:Node,
  {157e9a17-e986-476c-9d34-7ab2a46ee7db}, !- Handle
  Node 1,                                 !- Name
  {355698dd-425e-4e05-890d-dd147fcb803e}, !- Inlet Port
  ;                                       !- Outlet Port

OS:Connection,
  {355698dd-425e-4e05-890d-dd147fcb803e}, !- Handle
  {ded1c552-4b96-4256-82c8-bb1d29db4a53}, !- Name
  {c511b503-cf03-4af0-ab52-aca9a23c969a}, !- Source Object
  11,                                     !- Outlet Port
  {157e9a17-e986-476c-9d34-7ab2a46ee7db}, !- Target Object
  2;                                      !- Inlet Port

OS:PortList,
  {d6b14567-ae6b-4440-b7f8-b34e74880c3e}, !- Handle
  Port List 1,                            !- Name
  {c511b503-cf03-4af0-ab52-aca9a23c969a}; !- HVAC Component

OS:PortList,
  {a592357c-e6ff-4500-b912-29bb447a7e6b}, !- Handle
  Port List 2,                            !- Name
  {c511b503-cf03-4af0-ab52-aca9a23c969a}; !- HVAC Component

OS:Sizing:Zone,
  {2fc1aad8-620b-4e07-ae34-6861130bab41}, !- Handle
  {c511b503-cf03-4af0-ab52-aca9a23c969a}, !- Zone or ZoneList Name
  SupplyAirTemperature,                   !- Zone Cooling Design Supply Air Temperature Input Method
  14,                                     !- Zone Cooling Design Supply Air Temperature {C}
  11.11,                                  !- Zone Cooling Design Supply Air Temperature Difference {deltaC}
  SupplyAirTemperature,                   !- Zone Heating Design Supply Air Temperature Input Method
  40,                                     !- Zone Heating Design Supply Air Temperature {C}
  11.11,                                  !- Zone Heating Design Supply Air Temperature Difference {deltaC}
  0.0085,                                 !- Zone Cooling Design Supply Air Humidity Ratio {kg-H2O/kg-air}
  0.008,                                  !- Zone Heating Design Supply Air Humidity Ratio {kg-H2O/kg-air}
  ,                                       !- Zone Heating Sizing Factor
  ,                                       !- Zone Cooling Sizing Factor
  DesignDay,                              !- Cooling Design Air Flow Method
  ,                                       !- Cooling Design Air Flow Rate {m3/s}
  ,                                       !- Cooling Minimum Air Flow per Zone Floor Area {m3/s-m2}
  ,                                       !- Cooling Minimum Air Flow {m3/s}
  ,                                       !- Cooling Minimum Air Flow Fraction
  DesignDay,                              !- Heating Design Air Flow Method
  ,                                       !- Heating Design Air Flow Rate {m3/s}
  ,                                       !- Heating Maximum Air Flow per Zone Floor Area {m3/s-m2}
  ,                                       !- Heating Maximum Air Flow {m3/s}
  ,                                       !- Heating Maximum Air Flow Fraction
  ,                                       !- Design Zone Air Distribution Effectiveness in Cooling Mode
  ,                                       !- Design Zone Air Distribution Effectiveness in Heating Mode
  No,                                     !- Account for Dedicated Outdoor Air System
  NeutralSupplyAir,                       !- Dedicated Outdoor Air System Control Strategy
  autosize,                               !- Dedicated Outdoor Air Low Setpoint Temperature for Design {C}
  autosize;                               !- Dedicated Outdoor Air High Setpoint Temperature for Design {C}

OS:ZoneHVAC:EquipmentList,
  {c2002b66-a751-486f-8c7e-cbaa8febaeee}, !- Handle
  Zone HVAC Equipment List 1,             !- Name
  {c511b503-cf03-4af0-ab52-aca9a23c969a}; !- Thermal Zone

OS:Space,
  {b459f1b6-e802-41ce-b55a-65508cc3d6d1}, !- Handle
  living space,                           !- Name
  ,                                       !- Space Type Name
  ,                                       !- Default Construction Set Name
  ,                                       !- Default Schedule Set Name
  ,                                       !- Direction of Relative North {deg}
  ,                                       !- X Origin {m}
  ,                                       !- Y Origin {m}
  ,                                       !- Z Origin {m}
  ,                                       !- Building Story Name
  {c511b503-cf03-4af0-ab52-aca9a23c969a}, !- Thermal Zone Name
  ,                                       !- Part of Total Floor Area
  ,                                       !- Design Specification Outdoor Air Object Name
  {fd0ccf24-a87a-4314-acfc-eeea32516462}; !- Building Unit Name

OS:Surface,
  {96020fe4-c72b-48c8-8189-7fdead1c4cd7}, !- Handle
  Surface 1,                              !- Name
  Floor,                                  !- Surface Type
  ,                                       !- Construction Name
  {b459f1b6-e802-41ce-b55a-65508cc3d6d1}, !- Space Name
  Ground,                                 !- Outside Boundary Condition
  ,                                       !- Outside Boundary Condition Object
  NoSun,                                  !- Sun Exposure
  NoWind,                                 !- Wind Exposure
  ,                                       !- View Factor to Ground
  ,                                       !- Number of Vertices
  0, -12.9315688143396, 0,                !- X,Y,Z Vertex 1 {m}
  0, 0, 0,                                !- X,Y,Z Vertex 2 {m}
  6.46578440716979, 0, 0,                 !- X,Y,Z Vertex 3 {m}
  6.46578440716979, -12.9315688143396, 0; !- X,Y,Z Vertex 4 {m}

OS:Surface,
  {da78aa4e-b9c2-41d4-a6ea-5304706924d1}, !- Handle
  Surface 2,                              !- Name
  Wall,                                   !- Surface Type
  ,                                       !- Construction Name
  {b459f1b6-e802-41ce-b55a-65508cc3d6d1}, !- Space Name
  Outdoors,                               !- Outside Boundary Condition
  ,                                       !- Outside Boundary Condition Object
  SunExposed,                             !- Sun Exposure
  WindExposed,                            !- Wind Exposure
  ,                                       !- View Factor to Ground
  ,                                       !- Number of Vertices
  0, 0, 2.4384,                           !- X,Y,Z Vertex 1 {m}
  0, 0, 0,                                !- X,Y,Z Vertex 2 {m}
  0, -12.9315688143396, 0,                !- X,Y,Z Vertex 3 {m}
  0, -12.9315688143396, 2.4384;           !- X,Y,Z Vertex 4 {m}

OS:Surface,
  {db8b5eae-b021-49de-8b4b-3f53c9fce9d6}, !- Handle
  Surface 3,                              !- Name
  Wall,                                   !- Surface Type
  ,                                       !- Construction Name
  {b459f1b6-e802-41ce-b55a-65508cc3d6d1}, !- Space Name
  Adiabatic,                              !- Outside Boundary Condition
  ,                                       !- Outside Boundary Condition Object
  NoSun,                                  !- Sun Exposure
  NoWind,                                 !- Wind Exposure
  ,                                       !- View Factor to Ground
  ,                                       !- Number of Vertices
  6.46578440716979, 0, 2.4384,            !- X,Y,Z Vertex 1 {m}
  6.46578440716979, 0, 0,                 !- X,Y,Z Vertex 2 {m}
  0, 0, 0,                                !- X,Y,Z Vertex 3 {m}
  0, 0, 2.4384;                           !- X,Y,Z Vertex 4 {m}

OS:Surface,
  {c00454aa-8dac-4257-96fd-ae419be7e596}, !- Handle
  Surface 4,                              !- Name
  Wall,                                   !- Surface Type
  ,                                       !- Construction Name
  {b459f1b6-e802-41ce-b55a-65508cc3d6d1}, !- Space Name
  Surface,                                !- Outside Boundary Condition
  {b32843b4-a024-42ad-a332-99ee6e07c889}, !- Outside Boundary Condition Object
  NoSun,                                  !- Sun Exposure
  NoWind,                                 !- Wind Exposure
  ,                                       !- View Factor to Ground
  ,                                       !- Number of Vertices
  6.46578440716979, -12.9315688143396, 2.4384, !- X,Y,Z Vertex 1 {m}
  6.46578440716979, -12.9315688143396, 0, !- X,Y,Z Vertex 2 {m}
  6.46578440716979, 0, 0,                 !- X,Y,Z Vertex 3 {m}
  6.46578440716979, 0, 2.4384;            !- X,Y,Z Vertex 4 {m}

OS:Surface,
  {a3594a98-eb48-496a-a158-f3a8061b4f5a}, !- Handle
  Surface 5,                              !- Name
  Wall,                                   !- Surface Type
  ,                                       !- Construction Name
  {b459f1b6-e802-41ce-b55a-65508cc3d6d1}, !- Space Name
  Outdoors,                               !- Outside Boundary Condition
  ,                                       !- Outside Boundary Condition Object
  SunExposed,                             !- Sun Exposure
  WindExposed,                            !- Wind Exposure
  ,                                       !- View Factor to Ground
  ,                                       !- Number of Vertices
  0, -12.9315688143396, 2.4384,           !- X,Y,Z Vertex 1 {m}
  0, -12.9315688143396, 0,                !- X,Y,Z Vertex 2 {m}
  6.46578440716979, -12.9315688143396, 0, !- X,Y,Z Vertex 3 {m}
  6.46578440716979, -12.9315688143396, 2.4384; !- X,Y,Z Vertex 4 {m}

OS:Surface,
  {f9e2331a-369b-4918-a714-858a955fce54}, !- Handle
  Surface 6,                              !- Name
  RoofCeiling,                            !- Surface Type
  ,                                       !- Construction Name
  {b459f1b6-e802-41ce-b55a-65508cc3d6d1}, !- Space Name
  Outdoors,                               !- Outside Boundary Condition
  ,                                       !- Outside Boundary Condition Object
  SunExposed,                             !- Sun Exposure
  WindExposed,                            !- Wind Exposure
  ,                                       !- View Factor to Ground
  ,                                       !- Number of Vertices
  6.46578440716979, -12.9315688143396, 2.4384, !- X,Y,Z Vertex 1 {m}
  6.46578440716979, 0, 2.4384,            !- X,Y,Z Vertex 2 {m}
  0, 0, 2.4384,                           !- X,Y,Z Vertex 3 {m}
  0, -12.9315688143396, 2.4384;           !- X,Y,Z Vertex 4 {m}

OS:ThermalZone,
  {f034c9b1-838f-4ff0-85e6-92691e797920}, !- Handle
  living zone|unit 2,                     !- Name
  ,                                       !- Multiplier
  ,                                       !- Ceiling Height {m}
  ,                                       !- Volume {m3}
  ,                                       !- Floor Area {m2}
  ,                                       !- Zone Inside Convection Algorithm
  ,                                       !- Zone Outside Convection Algorithm
  ,                                       !- Zone Conditioning Equipment List Name
  {46e68a0f-66cd-4d3e-b488-c6eccb3f26fa}, !- Zone Air Inlet Port List
  {87c3503a-6a8e-4074-8962-c3983b8bea54}, !- Zone Air Exhaust Port List
  {ded55e74-d572-411b-b6f7-af435d12b1e0}, !- Zone Air Node Name
  ,                                       !- Zone Return Air Node Name
  ,                                       !- Primary Daylighting Control Name
  ,                                       !- Fraction of Zone Controlled by Primary Daylighting Control
  ,                                       !- Secondary Daylighting Control Name
  ,                                       !- Fraction of Zone Controlled by Secondary Daylighting Control
  ,                                       !- Illuminance Map Name
  ,                                       !- Group Rendering Name
  ,                                       !- Thermostat Name
  No;                                     !- Use Ideal Air Loads

OS:Node,
  {910afd94-2d0d-460e-937b-36f16931ad67}, !- Handle
  Node 2,                                 !- Name
  {ded55e74-d572-411b-b6f7-af435d12b1e0}, !- Inlet Port
  ;                                       !- Outlet Port

OS:Connection,
  {ded55e74-d572-411b-b6f7-af435d12b1e0}, !- Handle
  {46dcee39-065c-4434-975d-363788c65f4a}, !- Name
  {f034c9b1-838f-4ff0-85e6-92691e797920}, !- Source Object
  11,                                     !- Outlet Port
  {910afd94-2d0d-460e-937b-36f16931ad67}, !- Target Object
  2;                                      !- Inlet Port

OS:PortList,
  {46e68a0f-66cd-4d3e-b488-c6eccb3f26fa}, !- Handle
  Port List 3,                            !- Name
  {f034c9b1-838f-4ff0-85e6-92691e797920}; !- HVAC Component

OS:PortList,
  {87c3503a-6a8e-4074-8962-c3983b8bea54}, !- Handle
  Port List 4,                            !- Name
  {f034c9b1-838f-4ff0-85e6-92691e797920}; !- HVAC Component

OS:Sizing:Zone,
  {1af63383-f338-46e0-8d9e-1d2943faf070}, !- Handle
  {f034c9b1-838f-4ff0-85e6-92691e797920}, !- Zone or ZoneList Name
  SupplyAirTemperature,                   !- Zone Cooling Design Supply Air Temperature Input Method
  14,                                     !- Zone Cooling Design Supply Air Temperature {C}
  11.11,                                  !- Zone Cooling Design Supply Air Temperature Difference {deltaC}
  SupplyAirTemperature,                   !- Zone Heating Design Supply Air Temperature Input Method
  40,                                     !- Zone Heating Design Supply Air Temperature {C}
  11.11,                                  !- Zone Heating Design Supply Air Temperature Difference {deltaC}
  0.0085,                                 !- Zone Cooling Design Supply Air Humidity Ratio {kg-H2O/kg-air}
  0.008,                                  !- Zone Heating Design Supply Air Humidity Ratio {kg-H2O/kg-air}
  ,                                       !- Zone Heating Sizing Factor
  ,                                       !- Zone Cooling Sizing Factor
  DesignDay,                              !- Cooling Design Air Flow Method
  ,                                       !- Cooling Design Air Flow Rate {m3/s}
  ,                                       !- Cooling Minimum Air Flow per Zone Floor Area {m3/s-m2}
  ,                                       !- Cooling Minimum Air Flow {m3/s}
  ,                                       !- Cooling Minimum Air Flow Fraction
  DesignDay,                              !- Heating Design Air Flow Method
  ,                                       !- Heating Design Air Flow Rate {m3/s}
  ,                                       !- Heating Maximum Air Flow per Zone Floor Area {m3/s-m2}
  ,                                       !- Heating Maximum Air Flow {m3/s}
  ,                                       !- Heating Maximum Air Flow Fraction
  ,                                       !- Design Zone Air Distribution Effectiveness in Cooling Mode
  ,                                       !- Design Zone Air Distribution Effectiveness in Heating Mode
  No,                                     !- Account for Dedicated Outdoor Air System
  NeutralSupplyAir,                       !- Dedicated Outdoor Air System Control Strategy
  autosize,                               !- Dedicated Outdoor Air Low Setpoint Temperature for Design {C}
  autosize;                               !- Dedicated Outdoor Air High Setpoint Temperature for Design {C}

OS:ZoneHVAC:EquipmentList,
  {1027315c-6bc1-46c4-8912-e9bf85f1da7f}, !- Handle
  Zone HVAC Equipment List 2,             !- Name
  {f034c9b1-838f-4ff0-85e6-92691e797920}; !- Thermal Zone

OS:Space,
  {c3775391-c1f0-44df-9ad6-32f60f7676bc}, !- Handle
  living space|unit 2,                    !- Name
  ,                                       !- Space Type Name
  ,                                       !- Default Construction Set Name
  ,                                       !- Default Schedule Set Name
  ,                                       !- Direction of Relative North {deg}
  ,                                       !- X Origin {m}
  ,                                       !- Y Origin {m}
  ,                                       !- Z Origin {m}
  ,                                       !- Building Story Name
  {f034c9b1-838f-4ff0-85e6-92691e797920}, !- Thermal Zone Name
  ,                                       !- Part of Total Floor Area
  ,                                       !- Design Specification Outdoor Air Object Name
  {94d24bd7-774a-4062-9bf4-50eb6297f906}; !- Building Unit Name

OS:Surface,
  {ed40c338-19a8-4493-bacd-38b8eba413a1}, !- Handle
  Surface 7,                              !- Name
  Floor,                                  !- Surface Type
  ,                                       !- Construction Name
  {c3775391-c1f0-44df-9ad6-32f60f7676bc}, !- Space Name
  Ground,                                 !- Outside Boundary Condition
  ,                                       !- Outside Boundary Condition Object
  NoSun,                                  !- Sun Exposure
  NoWind,                                 !- Wind Exposure
  ,                                       !- View Factor to Ground
  ,                                       !- Number of Vertices
  0, 3.048, 0,                            !- X,Y,Z Vertex 1 {m}
  0, 15.9795688143396, 0,                 !- X,Y,Z Vertex 2 {m}
  6.46578440716979, 15.9795688143396, 0,  !- X,Y,Z Vertex 3 {m}
  6.46578440716979, 3.048, 0;             !- X,Y,Z Vertex 4 {m}

OS:Surface,
  {6161b6ce-280e-458f-9921-e9c37a11f1f4}, !- Handle
  Surface 8,                              !- Name
  Wall,                                   !- Surface Type
  ,                                       !- Construction Name
  {c3775391-c1f0-44df-9ad6-32f60f7676bc}, !- Space Name
  Outdoors,                               !- Outside Boundary Condition
  ,                                       !- Outside Boundary Condition Object
  SunExposed,                             !- Sun Exposure
  WindExposed,                            !- Wind Exposure
  ,                                       !- View Factor to Ground
  ,                                       !- Number of Vertices
  0, 15.9795688143396, 2.4384,            !- X,Y,Z Vertex 1 {m}
  0, 15.9795688143396, 0,                 !- X,Y,Z Vertex 2 {m}
  0, 3.048, 0,                            !- X,Y,Z Vertex 3 {m}
  0, 3.048, 2.4384;                       !- X,Y,Z Vertex 4 {m}

OS:Surface,
  {c8caf724-a811-4cf5-a619-1d9f30cb1aa8}, !- Handle
  Surface 9,                              !- Name
  Wall,                                   !- Surface Type
  ,                                       !- Construction Name
  {c3775391-c1f0-44df-9ad6-32f60f7676bc}, !- Space Name
  Outdoors,                               !- Outside Boundary Condition
  ,                                       !- Outside Boundary Condition Object
  SunExposed,                             !- Sun Exposure
  WindExposed,                            !- Wind Exposure
  ,                                       !- View Factor to Ground
  ,                                       !- Number of Vertices
  6.46578440716979, 15.9795688143396, 2.4384, !- X,Y,Z Vertex 1 {m}
  6.46578440716979, 15.9795688143396, 0,  !- X,Y,Z Vertex 2 {m}
  0, 15.9795688143396, 0,                 !- X,Y,Z Vertex 3 {m}
  0, 15.9795688143396, 2.4384;            !- X,Y,Z Vertex 4 {m}

OS:Surface,
  {23c222fb-90a5-4845-9079-fc0e5b550bbd}, !- Handle
  Surface 10,                             !- Name
  Wall,                                   !- Surface Type
  ,                                       !- Construction Name
  {c3775391-c1f0-44df-9ad6-32f60f7676bc}, !- Space Name
  Surface,                                !- Outside Boundary Condition
  {37a76e3d-a665-4a81-bbd7-f1325ad5b499}, !- Outside Boundary Condition Object
  NoSun,                                  !- Sun Exposure
  NoWind,                                 !- Wind Exposure
  ,                                       !- View Factor to Ground
  ,                                       !- Number of Vertices
  6.46578440716979, 3.048, 2.4384,        !- X,Y,Z Vertex 1 {m}
  6.46578440716979, 3.048, 0,             !- X,Y,Z Vertex 2 {m}
  6.46578440716979, 15.9795688143396, 0,  !- X,Y,Z Vertex 3 {m}
  6.46578440716979, 15.9795688143396, 2.4384; !- X,Y,Z Vertex 4 {m}

OS:Surface,
  {ea21294f-83e6-411c-85a9-f6604dfb0655}, !- Handle
  Surface 11,                             !- Name
  Wall,                                   !- Surface Type
  ,                                       !- Construction Name
  {c3775391-c1f0-44df-9ad6-32f60f7676bc}, !- Space Name
  Adiabatic,                              !- Outside Boundary Condition
  ,                                       !- Outside Boundary Condition Object
  NoSun,                                  !- Sun Exposure
  NoWind,                                 !- Wind Exposure
  ,                                       !- View Factor to Ground
  ,                                       !- Number of Vertices
  0, 3.048, 2.4384,                       !- X,Y,Z Vertex 1 {m}
  0, 3.048, 0,                            !- X,Y,Z Vertex 2 {m}
  6.46578440716979, 3.048, 0,             !- X,Y,Z Vertex 3 {m}
  6.46578440716979, 3.048, 2.4384;        !- X,Y,Z Vertex 4 {m}

OS:Surface,
  {b6525369-9300-444e-9d29-18a1241a9698}, !- Handle
  Surface 12,                             !- Name
  RoofCeiling,                            !- Surface Type
  ,                                       !- Construction Name
  {c3775391-c1f0-44df-9ad6-32f60f7676bc}, !- Space Name
  Outdoors,                               !- Outside Boundary Condition
  ,                                       !- Outside Boundary Condition Object
  SunExposed,                             !- Sun Exposure
  WindExposed,                            !- Wind Exposure
  ,                                       !- View Factor to Ground
  ,                                       !- Number of Vertices
  6.46578440716979, 3.048, 2.4384,        !- X,Y,Z Vertex 1 {m}
  6.46578440716979, 15.9795688143396, 2.4384, !- X,Y,Z Vertex 2 {m}
  0, 15.9795688143396, 2.4384,            !- X,Y,Z Vertex 3 {m}
  0, 3.048, 2.4384;                       !- X,Y,Z Vertex 4 {m}

OS:ThermalZone,
  {ddd68ca4-4b49-4245-9e2c-9115ddbef059}, !- Handle
  living zone|unit 3,                     !- Name
  ,                                       !- Multiplier
  ,                                       !- Ceiling Height {m}
  ,                                       !- Volume {m3}
  ,                                       !- Floor Area {m2}
  ,                                       !- Zone Inside Convection Algorithm
  ,                                       !- Zone Outside Convection Algorithm
  ,                                       !- Zone Conditioning Equipment List Name
  {94e06cc8-0ac7-447b-91a8-4a66dc732085}, !- Zone Air Inlet Port List
  {e9237426-7a1b-44c6-9b02-f24ac1f7a0b3}, !- Zone Air Exhaust Port List
  {3719e118-6d32-4b2f-a03c-069fd693bf2c}, !- Zone Air Node Name
  ,                                       !- Zone Return Air Node Name
  ,                                       !- Primary Daylighting Control Name
  ,                                       !- Fraction of Zone Controlled by Primary Daylighting Control
  ,                                       !- Secondary Daylighting Control Name
  ,                                       !- Fraction of Zone Controlled by Secondary Daylighting Control
  ,                                       !- Illuminance Map Name
  ,                                       !- Group Rendering Name
  ,                                       !- Thermostat Name
  No;                                     !- Use Ideal Air Loads

OS:Node,
  {75d8ee6d-b862-4d63-b861-78be55bd0213}, !- Handle
  Node 3,                                 !- Name
  {3719e118-6d32-4b2f-a03c-069fd693bf2c}, !- Inlet Port
  ;                                       !- Outlet Port

OS:Connection,
  {3719e118-6d32-4b2f-a03c-069fd693bf2c}, !- Handle
  {f28c7fd5-d662-432f-b9f4-975e2c4f182f}, !- Name
  {ddd68ca4-4b49-4245-9e2c-9115ddbef059}, !- Source Object
  11,                                     !- Outlet Port
  {75d8ee6d-b862-4d63-b861-78be55bd0213}, !- Target Object
  2;                                      !- Inlet Port

OS:PortList,
  {94e06cc8-0ac7-447b-91a8-4a66dc732085}, !- Handle
  Port List 5,                            !- Name
  {ddd68ca4-4b49-4245-9e2c-9115ddbef059}; !- HVAC Component

OS:PortList,
  {e9237426-7a1b-44c6-9b02-f24ac1f7a0b3}, !- Handle
  Port List 6,                            !- Name
  {ddd68ca4-4b49-4245-9e2c-9115ddbef059}; !- HVAC Component

OS:Sizing:Zone,
  {340c06cc-2d4e-4bb7-86b8-fe952b1e086f}, !- Handle
  {ddd68ca4-4b49-4245-9e2c-9115ddbef059}, !- Zone or ZoneList Name