
OS:Version,
  {9e5b7ced-43c2-43d2-a0f8-2a9b4694ab8b}, !- Handle
  1.3.1;                                  !- Version Identifier

OS:Construction,
  {7bb692f8-3e67-4d70-a9e7-3ab1651e1883}, !- Handle
  CSRimJoist,                             !- Name
  ,                                       !- Surface Rendering Name
  {aa8140b4-fe19-4b86-a28e-7bc6e6d531f9}, !- Layer 1
  {f6a3ff02-8a61-4744-935f-b1f607078f33}, !- Layer 2
  {8d23570c-22ee-4609-98e6-bfefecddea0b}; !- Layer 3

OS:Material,
  {aa8140b4-fe19-4b86-a28e-7bc6e6d531f9}, !- Handle
  Exterior_Finish_Vinyl_Light,            !- Name
  Rough,                                  !- Roughness
  0.009525,                               !- Thickness {m}
  0.089435,                               !- Conductivity {W/m-K}
  177.822,                                !- Density {kg/m3}
  1046.75,                                !- Specific Heat {J/kg-K}
  0.9,                                    !- Thermal Absorptance
  0.3,                                    !- Solar Absorptance
  0.3;                                    !- Visible Absorptance

OS:Material,
  {f6a3ff02-8a61-4744-935f-b1f607078f33}, !- Handle
  Plywood_3_2in,                          !- Name
  Rough,                                  !- Roughness
  0.0381,                                 !- Thickness {m}
  0.1154577,                              !- Conductivity {W/m-K}
  512.64,                                 !- Density {kg/m3}
  1214.23;                                !- Specific Heat {J/kg-K}

OS:Material,
  {8d23570c-22ee-4609-98e6-bfefecddea0b}, !- Handle
  CSJoistandCavity,                       !- Name
  Rough,                                  !- Roughness
  0.23495,                                !- Thickness {m}
  0.0391775744568136,                     !- Conductivity {W/m-K}
  108.738954,                             !- Density {kg/m3}
  1149.39401785582;                       !- Specific Heat {J/kg-K}

