
Version,
  9.6;                                    !- Version Identifier

Timestep,
  1;                                      !- Number of Timesteps per Hour

Building,
  Building 1,                             !- Name
  ,                                       !- North Axis {deg}
  Suburbs,                                !- Terrain
  ,                                       !- Loads Convergence Tolerance Value {W}
  ,                                       !- Temperature Convergence Tolerance Value {deltaC}
  ,                                       !- Solar Distribution
  ,                                       !- Maximum Number of Warmup Days
  ;                                       !- Minimum Number of Warmup Days

Shading:Building:Detailed,
  Window1 shading surface,                !- Name
  trans schedule winter=0.85 summer=0.7,  !- Transmittance Schedule Name
  ,                                       !- Number of Vertices
  -27.9778205014427, 40.5283417239061, 0.3048, !- X,Y,Z Vertex 1 {m}
  -27.9778205014427, 40.5283417239061, 1.524, !- X,Y,Z Vertex 2 {m}
  -19.7482205014427, 40.5283417239061, 1.524, !- X,Y,Z Vertex 3 {m}
  -19.7482205014427, 40.5283417239061, 0.3048; !- X,Y,Z Vertex 4 {m}

Shading:Building:Detailed,
  Window2 shading surface,                !- Name
  trans schedule winter=0.85 summer=0.7,  !- Transmittance Schedule Name
  ,                                       !- Number of Vertices
  40.5283426508031, -21.4144093575394, 0.3048, !- X,Y,Z Vertex 1 {m}
  40.5283426508031, -21.4144093575394, 1.524, !- X,Y,Z Vertex 2 {m}
  40.5283427240417, -26.9008093575394, 1.524, !- X,Y,Z Vertex 3 {m}
  40.5283427240417, -26.9008093575394, 0.3048; !- X,Y,Z Vertex 4 {m}

Shading:Building:Detailed,
  Window3 shading surface,                !- Name
  trans schedule winter=0.85 summer=0.7,  !- Transmittance Schedule Name
  ,                                       !- Number of Vertices
  -15.91429235955, -40.5283427347111, 0.3048, !- X,Y,Z Vertex 1 {m}
  -15.91429235955, -40.5283427347111, 1.524, !- X,Y,Z Vertex 2 {m}
  -24.14389235955, -40.528342954427, 1.524, !- X,Y,Z Vertex 3 {m}
  -24.14389235955, -40.528342954427, 0.3048; !- X,Y,Z Vertex 4 {m}

Shading:Building:Detailed,
  Window4 shading surface,                !- Name
  trans schedule winter=0.85 summer=0.7,  !- Transmittance Schedule Name
  ,                                       !- Number of Vertices
  -40.5283432225303, 21.4144082755036, 0.3048, !- X,Y,Z Vertex 1 {m}
  -40.5283432225303, 21.4144082755036, 1.524, !- X,Y,Z Vertex 2 {m}
  -40.5283434422462, 26.9008082755036, 1.524, !- X,Y,Z Vertex 3 {m}
  -40.5283434422462, 26.9008082755036, 0.3048; !- X,Y,Z Vertex 4 {m}

Zone,
  attic - unvented,                       !- Name
  0,                                      !- Direction of Relative North {deg}
  0,                                      !- X Origin {m}
  0,                                      !- Y Origin {m}
  0,                                      !- Z Origin {m}
  ,                                       !- Type
  1,                                      !- Multiplier
  ,                                       !- Ceiling Height {m}
  104.690985541999,                       !- Volume {m3}
  ,                                       !- Floor Area {m2}
  ,                                       !- Zone Inside Convection Algorithm
  ,                                       !- Zone Outside Convection Algorithm
  Yes;                                    !- Part of Total Floor Area

BuildingSurface:Detailed,
  Roof1:0,                                !- Name
  Roof,                                   !- Surface Type
  Roof1 construction,                     !- Construction Name
  attic - unvented,                       !- Zone Name
  ,                                       !- Space Name
  Outdoors,                               !- Outside Boundary Condition
  ,                                       !- Outside Boundary Condition Object
  SunExposed,                             !- Sun Exposure
  WindExposed,                            !- Wind Exposure
  ,                                       !- View Factor to Ground
  ,                                       !- Number of Vertices
  -18.8191899600539, 40.5280370505159, 2.7432, !- X,Y,Z Vertex 1 {m}
  -18.8191902428315, 29.9364234406451, 8.03900680493539, !- X,Y,Z Vertex 2 {m}
  -15.8587442399461, 29.9364233616064, 8.03900680493539, !- X,Y,Z Vertex 3 {m}
  -15.8587439571685, 40.5280369714771, 2.7432; !- X,Y,Z Vertex 4 {m}

BuildingSurface:Detailed,
  Roof1:180,                              !- Name
  Roof,                                   !- Surface Type
  Roof1 construction,                     !- Construction Name
  attic - unvented,                       !- Zone Name
  ,                                       !- Space Name
  Outdoors,                               !- Outside Boundary Condition
  ,                                       !- Outside Boundary Condition Object
  SunExposed,                             !- Sun Exposure
  WindExposed,                            !- Wind Exposure
  ,                                       !- View Factor to Ground
  ,                                       !- Number of Vertices
  -27.8298393579184, -40.5280384162476, 2.7432, !- X,Y,Z Vertex 1 {m}
  -27.8298393579184, -29.9364248063768, 8.03900680493539, !- X,Y,Z Vertex 2 {m}
  -30.7902853608038, -29.9364248063768, 8.03900680493539, !- X,Y,Z Vertex 3 {m}
  -30.7902853608038, -40.5280384162476, 2.7432; !- X,Y,Z Vertex 4 {m}

BuildingSurface:Detailed,
  Roof1:270,                              !- Name
  Roof,                                   !- Surface Type
  Roof1 construction,                     !- Construction Name
  attic - unvented,                       !- Zone Name
  ,                                       !- Space Name
  Outdoors,                               !- Outside Boundary Condition
  ,                                       !- Outside Boundary Condition Object
  SunExposed,                             !- Sun Exposure
  WindExposed,                            !- Wind Exposure
  ,                                       !- View Factor to Ground
  ,                                       !- Number of Vertices
  -40.5280387877515, 27.8298388169046, 2.7432, !- X,Y,Z Vertex 1 {m}
  -29.9364251778807, 27.8298389582934, 8.03900680493539, !- X,Y,Z Vertex 2 {m}
  -29.9364252174001, 30.7902849611787, 8.03900680493539, !- X,Y,Z Vertex 3 {m}
  -40.5280388272709, 30.79028481979, 2.7432; !- X,Y,Z Vertex 4 {m}

BuildingSurface:Detailed,
  Roof1:90,                               !- Name
  Roof,                                   !- Surface Type
  Roof1 construction,                     !- Construction Name
  attic - unvented,                       !- Zone Name
  ,                                       !- Space Name
  Outdoors,                               !- Outside Boundary Condition
  ,                                       !- Outside Boundary Condition Object
  SunExposed,                             !- Sun Exposure
  WindExposed,                            !- Wind Exposure
  ,                                       !- View Factor to Ground
  ,                                       !- Number of Vertices
  40.5280380447436, -27.8298398989323, 2.7432, !- X,Y,Z Vertex 1 {m}
  29.9364244348728, -27.8298397575435, 8.03900680493539, !- X,Y,Z Vertex 2 {m}
  29.9364243953534, -30.7902857604289, 8.03900680493539, !- X,Y,Z Vertex 3 {m}
  40.5280380052242, -30.7902859018176, 2.7432; !- X,Y,Z Vertex 4 {m}

BuildingSurface:Detailed,
  Surface 1 Reversed,                     !- Name
  Floor,                                  !- Surface Type
  FrameFloor1 construction Reversed,      !- Construction Name
  attic - unvented,                       !- Zone Name
  ,                                       !- Space Name
  Surface,                                !- Outside Boundary Condition
  FrameFloor1,                            !- Outside Boundary Condition Object
  NoSun,                                  !- Sun Exposure
  NoWind,                                 !- Wind Exposure
  ,                                       !- View Factor to Ground
  ,                                       !- Number of Vertices
  -5.59953355200234, -5.59953355200235, 2.7432, !- X,Y,Z Vertex 1 {m}
  -5.59953355200234, 5.59953355200235, 2.7432, !- X,Y,Z Vertex 2 {m}
  5.59953355200234, 5.59953355200235, 2.7432, !- X,Y,Z Vertex 3 {m}
  5.59953355200234, -5.59953355200235, 2.7432; !- X,Y,Z Vertex 4 {m}

BuildingSurface:Detailed,
  Wall2:0,                                !- Name
  Wall,                                   !- Surface Type
  Wall2 construction,                     !- Construction Name
  attic - unvented,                       !- Zone Name
  ,                                       !- Space Name
  Outdoors,                               !- Outside Boundary Condition
  ,                                       !- Outside Boundary Condition Object
  SunExposed,                             !- Sun Exposure
  WindExposed,                            !- Wind Exposure
  ,                                       !- View Factor to Ground
  ,                                       !- Number of Vertices
  -39.5990063014427, 40.5280367281489, 0.3048, !- X,Y,Z Vertex 1 {m}
  -39.5990063014427, 40.5280367281489, 2.7432, !- X,Y,Z Vertex 2 {m}
  -37.4558813014427, 40.5280367281489, 2.7432, !- X,Y,Z Vertex 3 {m}
  -37.4558813014427, 40.5280367281489, 0.3048; !- X,Y,Z Vertex 4 {m}

BuildingSurface:Detailed,
  Wall2:180,                              !- Name
  Wall,                                   !- Surface Type
  Wall2 construction,                     !- Construction Name
  attic - unvented,                       !- Zone Name
  ,                                       !- Space Name
  Outdoors,                               !- Outside Boundary Condition
  ,                                       !- Outside Boundary Condition Object
  SunExposed,                             !- Sun Exposure
  WindExposed,                            !- Wind Exposure
  ,                                       !- View Factor to Ground
  ,                                       !- Number of Vertices
  -4.29310655955816, -40.5280374286885, 0.3048, !- X,Y,Z Vertex 1 {m}
  -4.29310655955816, -40.5280374286885, 2.7432, !- X,Y,Z Vertex 2 {m}
  -6.43623155955816, -40.5280374859063, 2.7432, !- X,Y,Z Vertex 3 {m}
  -6.43623155955816, -40.5280374859063, 0.3048; !- X,Y,Z Vertex 4 {m}

BuildingSurface:Detailed,
  Wall2:270,                              !- Name
  Wall,                                   !- Surface Type
  Wall2 construction,                     !- Construction Name
  attic - unvented,                       !- Zone Name
  ,                                       !- Space Name
  Outdoors,                               !- Outside Boundary Condition
  ,                                       !- Outside Boundary Condition Object
  SunExposed,                             !- Sun Exposure
  WindExposed,                            !- Wind Exposure
  ,                                       !- View Factor to Ground
  ,                                       !- Number of Vertices
  -40.5280377796848, 9.79322247551584, 0.3048, !- X,Y,Z Vertex 1 {m}
  -40.5280377796848, 9.79322247551584, 2.7432, !- X,Y,Z Vertex 2 {m}
  -40.5280378655113, 11.9363474755158, 2.7432, !- X,Y,Z Vertex 3 {m}
  -40.5280378655113, 11.9363474755158, 0.3048; !- X,Y,Z Vertex 4 {m}

BuildingSurface:Detailed,
  Wall2:90,                               !- Name
  Wall,                                   !- Surface Type
  Wall2 construction,                     !- Construction Name
  attic - unvented,                       !- Zone Name
  ,                                       !- Space Name
  Outdoors,                               !- Outside Boundary Condition
  ,                                       !- Outside Boundary Condition Object
  SunExposed,                             !- Sun Exposure
  WindExposed,                            !- Wind Exposure
  ,                                       !- View Factor to Ground
  ,                                       !- Number of Vertices
  40.5280375182229, -9.79322355754348, 0.3048, !- X,Y,Z Vertex 1 {m}
  40.5280375182229, -9.79322355754348, 2.7432, !- X,Y,Z Vertex 2 {m}
  40.5280375468317, -11.9363485575435, 2.7432, !- X,Y,Z Vertex 3 {m}
  40.5280375468317, -11.9363485575435, 0.3048; !- X,Y,Z Vertex 4 {m}

OtherEquipment,
  central_ac_and_furnace_airloop_0_RetCondToDZ equip, !- Name
  None,                                   !- Fuel Type
  attic - unvented,                       !- Zone or ZoneList or Space or SpaceList Name
  Always On Discrete,                     !- Schedule Name
  EquipmentLevel,                         !- Design Level Calculation Method
  0,                                      !- Design Level {W}
  ,                                       !- Power per Zone Floor Area {W/m2}
  ,                                       !- Power per Person {W/person}
  0,                                      !- Fraction Latent
  0,                                      !- Fraction Radiant
  0,                                      !- Fraction Lost
  ,                                       !- Carbon Dioxide Generation Rate {m3/s-W}
  General;                                !- End-Use Subcategory

Schedule:Constant,
  Always On Discrete,                     !- Name
  OnOff,                                  !- Schedule Type Limits Name
  1;                                      !- Hourly Value

OtherEquipment,
  central_ac_and_furnace_airloop_0_SupCondToDZ equip, !- Name
  None,                                   !- Fuel Type
  attic - unvented,                       !- Zone or ZoneList or Space or SpaceList Name
  Always On Discrete,                     !- Schedule Name
  EquipmentLevel,                         !- Design Level Calculation Method
  0,                                      !- Design Level {W}
  ,                                       !- Power per Zone Floor Area {W/m2}
  ,                                       !- Power per Person {W/person}
  0,                                      !- Fraction Latent
  0,                                      !- Fraction Radiant
  0,                                      !- Fraction Lost
  ,                                       !- Carbon Dioxide Generation Rate {m3/s-W}
  General;                                !- End-Use Subcategory

OtherEquipment,
  central_ac_and_furnace_airloop_0_SupLatLkToDZ equip, !- Name
  None,                                   !- Fuel Type
  attic - unvented,                       !- Zone or ZoneList or Space or SpaceList Name
  Always On Discrete,                     !- Schedule Name
  EquipmentLevel,                         !- Design Level Calculation Method
  0,                                      !- Design Level {W}
  ,                                       !- Power per Zone Floor Area {W/m2}
  ,                                       !- Power per Person {W/person}
  1,                                      !- Fraction Latent
  0,                                      !- Fraction Radiant
  0,                                      !- Fraction Lost
  ,                                       !- Carbon Dioxide Generation Rate {m3/s-W}
  General;                                !- End-Use Subcategory

OtherEquipment,
  central_ac_and_furnace_airloop_0_SupSensLkToDZ equip, !- Name
  None,                                   !- Fuel Type
  attic - unvented,                       !- Zone or ZoneList or Space or SpaceList Name
  Always On Discrete,                     !- Schedule Name
  EquipmentLevel,                         !- Design Level Calculation Method
  0,                                      !- Design Level {W}
  ,                                       !- Power per Zone Floor Area {W/m2}
  ,                                       !- Power per Person {W/person}
  0,                                      !- Fraction Latent
  0,                                      !- Fraction Radiant
  0,                                      !- Fraction Lost
  ,                                       !- Carbon Dioxide Generation Rate {m3/s-W}
  General;                                !- End-Use Subcategory

ZoneInfiltration:DesignFlowRate,
  infil|attic - unvented 1,               !- Name
  attic - unvented,                       !- Zone or ZoneList Name
  Always On Discrete,                     !- Schedule Name
  AirChanges/Hour,                        !- Design Flow Rate Calculation Method
  ,                                       !- Design Flow Rate {m3/s}
  ,                                       !- Flow per Zone Floor Area {m3/s-m2}
  ,                                       !- Flow per Exterior Surface Area {m3/s-m2}
  0.1,                                    !- Air Changes per Hour {1/hr}
  1,                                      !- Constant Term Coefficient
  0,                                      !- Temperature Term Coefficient
  0,                                      !- Velocity Term Coefficient
  0;                                      !- Velocity Squared Term Coefficient

ZoneMixing,
  central_ac_and_furnace_airloop_0_ZoneMixLvToDZ mix, !- Name
  attic - unvented,                       !- Zone Name
  Always On Continuous,                   !- Schedule Name
  Flow/Zone,                              !- Design Flow Rate Calculation Method
  0,                                      !- Design Flow Rate {m3/s}
  ,                                       !- Flow Rate per Zone Floor Area {m3/s-m2}
  ,                                       !- Flow Rate per Person {m3/s-person}
  ,                                       !- Air Changes per Hour {1/hr}
  living space;                           !- Source Zone Name

Schedule:Constant,
  Always On Continuous,                   !- Name
  Fractional 1,                           !- Schedule Type Limits Name
  1;                                      !- Hourly Value

ZoneMixing,
  whole house fan mix,                    !- Name
  attic - unvented,                       !- Zone Name
  Always On Continuous,                   !- Schedule Name
  Flow/Zone,                              !- Design Flow Rate Calculation Method
  0,                                      !- Design Flow Rate {m3/s}
  ,                                       !- Flow Rate per Zone Floor Area {m3/s-m2}
  ,                                       !- Flow Rate per Person {m3/s-person}
  ,                                       !- Air Changes per Hour {1/hr}
  living space;                           !- Source Zone Name

Zone,
  central ac and furnace airloop ret air zone, !- Name
  0,                                      !- Direction of Relative North {deg}
  0,                                      !- X Origin {m}
  0,                                      !- Y Origin {m}
  0,                                      !- Z Origin {m}
  ,                                       !- Type
  1,                                      !- Multiplier
  ,                                       !- Ceiling Height {m}
  1,                                      !- Volume {m3}
  ,                                       !- Floor Area {m2}
  ,                                       !- Zone Inside Convection Algorithm
  ,                                       !- Zone Outside Convection Algorithm
  No;                                     !- Part of Total Floor Area

BuildingSurface:Detailed,
  Surface 1,                              !- Name
  Floor,                                  !- Surface Type
  AdiabaticConst,                         !- Construction Name
  central ac and furnace airloop ret air zone, !- Zone Name
  ,                                       !- Space Name
  Adiabatic,                              !- Outside Boundary Condition
  ,                                       !- Outside Boundary Condition Object
  NoSun,                                  !- Sun Exposure
  NoWind,                                 !- Wind Exposure
  ,                                       !- View Factor to Ground
  ,                                       !- Number of Vertices
  0, 0, 0,                                !- X,Y,Z Vertex 1 {m}
  0, 1, 0,                                !- X,Y,Z Vertex 2 {m}
  1, 1, 0,                                !- X,Y,Z Vertex 3 {m}
  1, 0, 0;                                !- X,Y,Z Vertex 4 {m}

SurfaceProperty:ConvectionCoefficients,
  Surface 1,                              !- Surface Name
  Inside,                                 !- Convection Coefficient 1 Location
  Value,                                  !- Convection Coefficient 1 Type
  30;                                     !- Convection Coefficient 1 {W/m2-K}

BuildingSurface:Detailed,
  Surface 2,                              !- Name
  Wall,                                   !- Surface Type
  AdiabaticConst,                         !- Construction Name
  central ac and furnace airloop ret air zone, !- Zone Name
  ,                                       !- Space Name
  Adiabatic,                              !- Outside Boundary Condition
  ,                                       !- Outside Boundary Condition Object
  NoSun,                                  !- Sun Exposure
  NoWind,                                 !- Wind Exposure
  ,                                       !- View Factor to Ground
  ,                                       !- Number of Vertices
  0, 1, 1,                                !- X,Y,Z Vertex 1 {m}
  0, 1, 0,                                !- X,Y,Z Vertex 2 {m}
  0, 0, 0,                                !- X,Y,Z Vertex 3 {m}
  0, 0, 1;                                !- X,Y,Z Vertex 4 {m}

SurfaceProperty:ConvectionCoefficients,
  Surface 2,                              !- Surface Name
  Inside,                                 !- Convection Coefficient 1 Location
  Value,                                  !- Convection Coefficient 1 Type
  30;                                     !- Convection Coefficient 1 {W/m2-K}

BuildingSurface:Detailed,
  Surface 3,                              !- Name
  Wall,                                   !- Surface Type
  AdiabaticConst,                         !- Construction Name
  central ac and furnace airloop ret air zone, !- Zone Name
  ,                                       !- Space Name
  Adiabatic,                              !- Outside Boundary Condition
  ,                                       !- Outside Boundary Condition Object
  NoSun,                                  !- Sun Exposure
  NoWind,                                 !- Wind Exposure
  ,                                       !- View Factor to Ground
  ,                                       !- Number of Vertices
  1, 1, 1,                                !- X,Y,Z Vertex 1 {m}
  1, 1, 0,                                !- X,Y,Z Vertex 2 {m}
  0, 1, 0,                                !- X,Y,Z Vertex 3 {m}
  0, 1, 1;                                !- X,Y,Z Vertex 4 {m}

SurfaceProperty:ConvectionCoefficients,
  Surface 3,                              !- Surface Name
  Inside,                                 !- Convection Coefficient 1 Location
  Value,                                  !- Convection Coefficient 1 Type
  30;                                     !- Convection Coefficient 1 {W/m2-K}

BuildingSurface:Detailed,
  Surface 4,                              !- Name
  Wall,                                   !- Surface Type
  AdiabaticConst,                         !- Construction Name
  central ac and furnace airloop ret air zone, !- Zone Name
  ,                                       !- Space Name
  Adiabatic,                              !- Outside Boundary Condition
  ,                                       !- Outside Boundary Condition Object
  NoSun,                                  !- Sun Exposure
  NoWind,                                 !- Wind Exposure
  ,                                       !- View Factor to Ground
  ,                                       !- Number of Vertices
  1, 0, 1,                                !- X,Y,Z Vertex 1 {m}
  1, 0, 0,                                !- X,Y,Z Vertex 2 {m}
  1, 1, 0,                                !- X,Y,Z Vertex 3 {m}
  1, 1, 1;                                !- X,Y,Z Vertex 4 {m}

SurfaceProperty:ConvectionCoefficients,
  Surface 4,                              !- Surface Name
  Inside,                                 !- Convection Coefficient 1 Location
  Value,                                  !- Convection Coefficient 1 Type
  30;                                     !- Convection Coefficient 1 {W/m2-K}

BuildingSurface:Detailed,
  Surface 5,                              !- Name
  Wall,                                   !- Surface Type
  AdiabaticConst,                         !- Construction Name
  central ac and furnace airloop ret air zone, !- Zone Name
  ,                                       !- Space Name
  Adiabatic,                              !- Outside Boundary Condition
  ,                                       !- Outside Boundary Condition Object
  NoSun,                                  !- Sun Exposure
  NoWind,                                 !- Wind Exposure
  ,                                       !- View Factor to Ground
  ,                                       !- Number of Vertices
  0, 0, 1,                                !- X,Y,Z Vertex 1 {m}
  0, 0, 0,                                !- X,Y,Z Vertex 2 {m}
  1, 0, 0,                                !- X,Y,Z Vertex 3 {m}
  1, 0, 1;                                !- X,Y,Z Vertex 4 {m}

SurfaceProperty:ConvectionCoefficients,
  Surface 5,                              !- Surface Name
  Inside,                                 !- Convection Coefficient 1 Location
  Value,                                  !- Convection Coefficient 1 Type
  30;                                     !- Convection Coefficient 1 {W/m2-K}

BuildingSurface:Detailed,
  Surface 6,                              !- Name
  Ceiling,                                !- Surface Type
  AdiabaticConst,                         !- Construction Name
  central ac and furnace airloop ret air zone, !- Zone Name
  ,                                       !- Space Name
  Adiabatic,                              !- Outside Boundary Condition
  ,                                       !- Outside Boundary Condition Object
  NoSun,                                  !- Sun Exposure
  NoWind,                                 !- Wind Exposure
  ,                                       !- View Factor to Ground
  ,                                       !- Number of Vertices
  1, 0, 1,                                !- X,Y,Z Vertex 1 {m}
  1, 1, 1,                                !- X,Y,Z Vertex 2 {m}
  0, 1, 1,                                !- X,Y,Z Vertex 3 {m}
  0, 0, 1;                                !- X,Y,Z Vertex 4 {m}

SurfaceProperty:ConvectionCoefficients,
  Surface 6,                              !- Surface Name
  Inside,                                 !- Convection Coefficient 1 Location
  Value,                                  !- Convection Coefficient 1 Type
  30;                                     !- Convection Coefficient 1 {W/m2-K}

OtherEquipment,
  central_ac_and_furnace_airloop_0_RetCondToRP equip, !- Name
  None,                                   !- Fuel Type
  central ac and furnace airloop ret air zone, !- Zone or ZoneList or Space or SpaceList Name
  Always On Discrete,                     !- Schedule Name
  EquipmentLevel,                         !- Design Level Calculation Method
  0,                                      !- Design Level {W}
  ,                                       !- Power per Zone Floor Area {W/m2}
  ,                                       !- Power per Person {W/person}
  0,                                      !- Fraction Latent
  0,                                      !- Fraction Radiant
  0,                                      !- Fraction Lost
  ,                                       !- Carbon Dioxide Generation Rate {m3/s-W}
  General;                                !- End-Use Subcategory

OtherEquipment,
  central_ac_and_furnace_airloop_0_RetLatLkToRP equip, !- Name
  None,                                   !- Fuel Type
  central ac and furnace airloop ret air zone, !- Zone or ZoneList or Space or SpaceList Name
  Always On Discrete,                     !- Schedule Name
  EquipmentLevel,                         !- Design Level Calculation Method
  0,                                      !- Design Level {W}
  ,                                       !- Power per Zone Floor Area {W/m2}
  ,                                       !- Power per Person {W/person}
  1,                                      !- Fraction Latent
  0,                                      !- Fraction Radiant
  0,                                      !- Fraction Lost
  ,                                       !- Carbon Dioxide Generation Rate {m3/s-W}
  General;                                !- End-Use Subcategory

OtherEquipment,
  central_ac_and_furnace_airloop_0_RetSensLkToRP equip, !- Name
  None,                                   !- Fuel Type
  central ac and furnace airloop ret air zone, !- Zone or ZoneList or Space or SpaceList Name
  Always On Discrete,                     !- Schedule Name
  EquipmentLevel,                         !- Design Level Calculation Method
  0,                                      !- Design Level {W}
  ,                                       !- Power per Zone Floor Area {W/m2}
  ,                                       !- Power per Person {W/person}
  0,                                      !- Fraction Latent
  0,                                      !- Fraction Radiant
  0,                                      !- Fraction Lost
  ,                                       !- Carbon Dioxide Generation Rate {m3/s-W}
  General;                                !- End-Use Subcategory

Zone,