
OS:Version,
  {c8ddee60-21dd-4434-83c8-66a7e2f4c14e}, !- Handle
  1.3.1;                                  !- Version Identifier

OS:Construction,
  {659423d9-62ee-4d04-a3c8-dfdce9fb19b9}, !- Handle
  ExtInsFinWall,                          !- Name
  ,                                       !- Surface Rendering Name
  {2755fac1-24b7-4531-9915-11b9d532739c}, !- Layer 1
  {5ead6429-17b4-404c-9bd9-b6e6a27151e9}, !- Layer 2
  {e68379c1-6e46-4be6-9355-7a1363fb3535}, !- Layer 3
  {bab5f455-bda3-467e-a6bf-92c2bdabd89d}, !- Layer 4
  {544561ad-9100-49d0-8a10-ab7592020e2f}, !- Layer 5
  {6624a66a-5040-428b-ad52-d99df52140c0}; !- Layer 6

OS:Material,
  {2755fac1-24b7-4531-9915-11b9d532739c}, !- Handle
  Exterior_Finish_Vinyl_Light,            !- Name
  Rough,                                  !- Roughness
  0.009525,                               !- Thickness {m}
  0.089435,                               !- Conductivity {W/m-K}
  177.822,                                !- Density {kg/m3}
  1046.75,                                !- Specific Heat {J/kg-K}
  0.9,                                    !- Thermal Absorptance
  0.3,                                    !- Solar Absorptance
  0.3;                                    !- Visible Absorptance

OS:Material,
  {6624a66a-5040-428b-ad52-d99df52140c0}, !- Handle
  GypsumBoard_1_2in,                      !- Name
  Rough,                                  !- Roughness
  0.0127,                                 !- Thickness {m}
  0.1602906,                              !- Conductivity {W/m-K}
  801,                                    !- Density {kg/m3}
  837.4;                                  !- Specific Heat {J/kg-K}

OS:Material,
  {5ead6429-17b4-404c-9bd9-b6e6a27151e9}, !- Handle
  SplineLayer,                            !- Name
  Rough,                                  !- Roughness
  0.0127,                                 !- Thickness {m}
  0.0310471447697843,                     !- Conductivity {W/m-K}
  147.0636,                               !- Density {kg/m3}
  1214.23;                                !- Specific Heat {J/kg-K}

OS:Material,
  {e68379c1-6e46-4be6-9355-7a1363fb3535}, !- Handle
  WallIns,                                !- Name
  Rough,                                  !- Roughness
  0.161925,                               !- Thickness {m}
  0.0419549778666667,                     !- Conductivity {W/m-K}
  107.0136,                               !- Density {kg/m3}
  1214.23;                                !- Specific Heat {J/kg-K}

OS:Material,
  {bab5f455-bda3-467e-a6bf-92c2bdabd89d}, !- Handle
  SplineLayer 1,                          !- Name
  Rough,                                  !- Roughness
  0.0127,                                 !- Thickness {m}
  0.0310471447697843,                     !- Conductivity {W/m-K}
  147.0636,                               !- Density {kg/m3}
  1214.23;                                !- Specific Heat {J/kg-K}

OS:Material,
  {544561ad-9100-49d0-8a10-ab7592020e2f}, !- Handle
  IntSheathing,                           !- Name
  Rough,                                  !- Roughness
  0.0127,                                 !- Thickness {m}
  0.1602906,                              !- Conductivity {W/m-K}
  801,                                    !- Density {kg/m3}
  837.4;                                  !- Specific Heat {J/kg-K}

