
OS:Version,
  {02d16130-841d-445b-aeab-82ee7ab0b6dc}, !- Handle
  1.3.1;                                  !- Version Identifier

OS:Construction,
  {5522add0-e5d7-43e1-a78b-f06bade512f7}, !- Handle
  ExtInsFinWall,                          !- Name
  ,                                       !- Surface Rendering Name
  {71ae51ad-da1f-4141-8465-3c46016ac771}, !- Layer 1
  {7f764054-f196-4f6f-b1b5-8242115102fa}, !- Layer 2
  {47c4f625-f9d6-4505-a668-cab703bc304f}, !- Layer 3
  {85ca0e75-387c-46ad-a3fa-b7a428f58782}, !- Layer 4
  {839f03d9-3f55-4ee3-a28e-8b265a990a32}, !- Layer 5
  {c77fe4ce-34d8-4416-843a-da4cf04c1c8f}; !- Layer 6

OS:Material,
  {71ae51ad-da1f-4141-8465-3c46016ac771}, !- Handle
  Exterior_Finish_Vinyl_Light,            !- Name
  Rough,                                  !- Roughness
  0.009525,                               !- Thickness {m}
  0.089435,                               !- Conductivity {W/m-K}
  177.822,                                !- Density {kg/m3}
  1046.75,                                !- Specific Heat {J/kg-K}
  0.9,                                    !- Thermal Absorptance
  0.3,                                    !- Solar Absorptance
  0.3;                                    !- Visible Absorptance

OS:Material,
  {c77fe4ce-34d8-4416-843a-da4cf04c1c8f}, !- Handle
  GypsumBoard_1_2in,                      !- Name
  Rough,                                  !- Roughness
  0.0127,                                 !- Thickness {m}
  0.1602906,                              !- Conductivity {W/m-K}
  801,                                    !- Density {kg/m3}
  837.4;                                  !- Specific Heat {J/kg-K}

OS:Material,
  {7f764054-f196-4f6f-b1b5-8242115102fa}, !- Handle
  SplineLayer,                            !- Name
  Rough,                                  !- Roughness
  0.0127,                                 !- Thickness {m}
  0.0307242451645793,                     !- Conductivity {W/m-K}
  147.0636,                               !- Density {kg/m3}
  1214.23;                                !- Specific Heat {J/kg-K}

OS:Material,
  {47c4f625-f9d6-4505-a668-cab703bc304f}, !- Handle
  WallIns,                                !- Name
  Rough,                                  !- Roughness
  0.212725,                               !- Thickness {m}
  0.0420404143578947,                     !- Conductivity {W/m-K}
  107.0136,                               !- Density {kg/m3}
  1214.23;                                !- Specific Heat {J/kg-K}

OS:Material,
  {85ca0e75-387c-46ad-a3fa-b7a428f58782}, !- Handle
  SplineLayer 1,                          !- Name
  Rough,                                  !- Roughness
  0.0127,                                 !- Thickness {m}
  0.0307242451645793,                     !- Conductivity {W/m-K}
  147.0636,                               !- Density {kg/m3}
  1214.23;                                !- Specific Heat {J/kg-K}

OS:Material,
  {839f03d9-3f55-4ee3-a28e-8b265a990a32}, !- Handle
  IntSheathing,                           !- Name
  Rough,                                  !- Roughness
  0.0127,                                 !- Thickness {m}
  0.1602906,                              !- Conductivity {W/m-K}
  801,                                    !- Density {kg/m3}
  837.4;                                  !- Specific Heat {J/kg-K}

