
OS:Version,
  {9c7f2562-04ab-4665-ad4c-e71aa7bdb934}, !- Handle
  1.3.1;                                  !- Version Identifier

OS:Construction,
  {d76dc219-3f36-411e-960a-6c85bbf7267e}, !- Handle
  ExtInsFinWall,                          !- Name
  ,                                       !- Surface Rendering Name
  {53040c80-bdb0-4bb1-a4f3-15f113de78d3}, !- Layer 1
  {0aec81c4-6edc-477e-8f5a-bc619a4d921d}, !- Layer 2
  {b2e414e7-afb0-47ca-bf19-57d4d63dff20}, !- Layer 3
  {f29cf827-fb27-4b16-b322-26e4ed8a7345}; !- Layer 4

OS:Material,
  {53040c80-bdb0-4bb1-a4f3-15f113de78d3}, !- Handle
  Exterior_Finish_Vinyl_Light,            !- Name
  Rough,                                  !- Roughness
  0.009525,                               !- Thickness {m}
  0.089435,                               !- Conductivity {W/m-K}
  177.822,                                !- Density {kg/m3}
  1046.75,                                !- Specific Heat {J/kg-K}
  0.9,                                    !- Thermal Absorptance
  0.3,                                    !- Solar Absorptance
  0.3;                                    !- Visible Absorptance

OS:Material,
  {0aec81c4-6edc-477e-8f5a-bc619a4d921d}, !- Handle
  Plywood_1_2in,                          !- Name
  Rough,                                  !- Roughness
  0.0127,                                 !- Thickness {m}
  0.1154577,                              !- Conductivity {W/m-K}
  512.64,                                 !- Density {kg/m3}
  1214.23;                                !- Specific Heat {J/kg-K}

OS:Material,
  {f29cf827-fb27-4b16-b322-26e4ed8a7345}, !- Handle
  GypsumBoard_1_2in,                      !- Name
  Rough,                                  !- Roughness
  0.0127,                                 !- Thickness {m}
  0.1602906,                              !- Conductivity {W/m-K}
  801,                                    !- Density {kg/m3}
  837.4;                                  !- Specific Heat {J/kg-K}

OS:Material,
  {b2e414e7-afb0-47ca-bf19-57d4d63dff20}, !- Handle
  StudandCavity,                          !- Name
  Rough,                                  !- Roughness
  0.0889,                                 !- Thickness {m}
  0.0771874695125024,                     !- Conductivity {W/m-K}
  161.735759427773,                       !- Density {kg/m3}
  1179.45713225292;                       !- Specific Heat {J/kg-K}

