!- NOTE: Auto-generated from /test/osw_files/SFD_2000sqft_2story_FB_GRG_UA_3Beds_2Baths_Denver.osw

OS:Version,
  {a1532b01-a0d3-403b-9433-791ef750bbad}, !- Handle
  2.1.0;                                  !- Version Identifier

OS:Building,
  {bf305633-c5a1-4881-9edf-ca5e1a8e1274}, !- Handle
  Building,                               !- Name
  ,                                       !- Building Sector Type
  ,                                       !- North Axis {deg}
  ,                                       !- Nominal Floor to Floor Height {m}
  ,                                       !- Space Type Name
  ,                                       !- Default Construction Set Name
  ,                                       !- Default Schedule Set Name
  3,                                      !- Standards Number of Stories
  2,                                      !- Standards Number of Above Ground Stories
  singlefamilydetached,                   !- Standards Building Type
  1;                                      !- Standards Number of Living Units

OS:YearDescription,
  {513d8dda-86cb-442a-b01c-1f7f0e0ac70e}; !- Handle

OS:SimulationControl,
  {2c487a4c-bac9-4ac5-b669-1e49d9da7c2b}, !- Handle
  ,                                       !- Do Zone Sizing Calculation
  ,                                       !- Do System Sizing Calculation
  ,                                       !- Do Plant Sizing Calculation
  No,                                     !- Run Simulation for Sizing Periods
  ;                                       !- Run Simulation for Weather File Run Periods

OS:Timestep,
  {4ebc9f1e-4707-402e-9844-67eb1ffbd522}, !- Handle
  6;                                      !- Number of Timesteps per Hour

OS:RunPeriod,
  {28df894d-6af9-4fb8-8f56-df1753344aa3}, !- Handle
  Run Period,                             !- Name
  1,                                      !- Begin Month
  1,                                      !- Begin Day of Month
  12,                                     !- End Month
  31,                                     !- End Day of Month
  ,                                       !- Use Weather File Holidays and Special Days
  ,                                       !- Use Weather File Daylight Saving Period
  ,                                       !- Apply Weekend Holiday Rule
  ,                                       !- Use Weather File Rain Indicators
  ,                                       !- Use Weather File Snow Indicators
  ;                                       !- Number of Times Runperiod to be Repeated

OS:Sizing:Parameters,
  {dde5af6f-7923-4600-a28a-7556673a0266}, !- Handle
  1.0,                                    !- Heating Sizing Factor
  1.0;                                    !- Cooling Sizing Factor

OS:ShadowCalculation,
  {ca758bea-4416-4626-9bba-3d8795c79bd6}, !- Handle
  20,                                     !- Calculation Frequency
  200;                                    !- Maximum Figures in Shadow Overlap Calculations

OS:SurfaceConvectionAlgorithm:Inside,
  {aaabfc36-718a-4ab0-b622-f186ebb45230}, !- Handle
  TARP;                                   !- Algorithm

OS:SurfaceConvectionAlgorithm:Outside,
  {9a0a9f6f-4bbd-4b12-a121-9492a1fcd7d6}, !- Handle
  DOE-2;                                  !- Algorithm

OS:HeatBalanceAlgorithm,
  {9d93e563-e1e0-46d7-9e39-d1c8aceb7212}, !- Handle
  ConductionTransferFunction,             !- Algorithm
  200;                                    !- Surface Temperature Upper Limit {C}

OS:ZoneCapacitanceMultiplier:ResearchSpecial,
  {6bfced16-b16f-47f6-8223-f7e267d75d19}, !- Handle
  ,                                       !- Temperature Capacity Multiplier
  15,                                     !- Humidity Capacity Multiplier
  ;                                       !- Carbon Dioxide Capacity Multiplier

OS:ThermalZone,
  {5ee45979-560d-4b7e-a0a8-a3f65d8145d9}, !- Handle
  living zone,                            !- Name
  ,                                       !- Multiplier
  ,                                       !- Ceiling Height {m}
  ,                                       !- Volume {m3}
  ,                                       !- Floor Area {m2}
  ,                                       !- Zone Inside Convection Algorithm
  ,                                       !- Zone Outside Convection Algorithm
  ,                                       !- Zone Conditioning Equipment List Name
  {2a03d360-c8a5-44bf-ae9b-a558fb11f1d7}, !- Zone Air Inlet Port List
  {e1d7c6fd-7c2b-4852-b5b6-5e590fdbf1fa}, !- Zone Air Exhaust Port List
  {92a66c41-119f-413d-b385-dbf189d663aa}, !- Zone Air Node Name
  ,                                       !- Zone Return Air Node Name
  ,                                       !- Primary Daylighting Control Name
  ,                                       !- Fraction of Zone Controlled by Primary Daylighting Control
  ,                                       !- Secondary Daylighting Control Name
  ,                                       !- Fraction of Zone Controlled by Secondary Daylighting Control
  ,                                       !- Illuminance Map Name
  ,                                       !- Group Rendering Name
  ,                                       !- Thermostat Name
  No;                                     !- Use Ideal Air Loads

OS:Node,
  {289c18a1-85a7-48e7-bdfe-d35a5b4089c0}, !- Handle
  Node 1,                                 !- Name
  {92a66c41-119f-413d-b385-dbf189d663aa}, !- Inlet Port
  ;                                       !- Outlet Port

OS:Connection,
  {92a66c41-119f-413d-b385-dbf189d663aa}, !- Handle
  {10aa2085-2ac6-4736-810b-d84c2f78588f}, !- Name
  {5ee45979-560d-4b7e-a0a8-a3f65d8145d9}, !- Source Object
  11,                                     !- Outlet Port
  {289c18a1-85a7-48e7-bdfe-d35a5b4089c0}, !- Target Object
  2;                                      !- Inlet Port

OS:PortList,
  {2a03d360-c8a5-44bf-ae9b-a558fb11f1d7}, !- Handle
  Port List 1,                            !- Name
  {5ee45979-560d-4b7e-a0a8-a3f65d8145d9}; !- HVAC Component

OS:PortList,
  {e1d7c6fd-7c2b-4852-b5b6-5e590fdbf1fa}, !- Handle
  Port List 2,                            !- Name
  {5ee45979-560d-4b7e-a0a8-a3f65d8145d9}; !- HVAC Component

OS:Sizing:Zone,
  {e7adae79-77bc-4551-b7dc-ab5d7eaead47}, !- Handle
  {5ee45979-560d-4b7e-a0a8-a3f65d8145d9}, !- Zone or ZoneList Name
  SupplyAirTemperature,                   !- Zone Cooling Design Supply Air Temperature Input Method
  14,                                     !- Zone Cooling Design Supply Air Temperature {C}
  11.11,                                  !- Zone Cooling Design Supply Air Temperature Difference {deltaC}
  SupplyAirTemperature,                   !- Zone Heating Design Supply Air Temperature Input Method
  40,                                     !- Zone Heating Design Supply Air Temperature {C}
  11.11,                                  !- Zone Heating Design Supply Air Temperature Difference {deltaC}
  0.0085,                                 !- Zone Cooling Design Supply Air Humidity Ratio {kg-H2O/kg-air}
  0.008,                                  !- Zone Heating Design Supply Air Humidity Ratio {kg-H2O/kg-air}
  ,                                       !- Zone Heating Sizing Factor
  ,                                       !- Zone Cooling Sizing Factor
  DesignDay,                              !- Cooling Design Air Flow Method
  ,                                       !- Cooling Design Air Flow Rate {m3/s}
  ,                                       !- Cooling Minimum Air Flow per Zone Floor Area {m3/s-m2}
  ,                                       !- Cooling Minimum Air Flow {m3/s}
  ,                                       !- Cooling Minimum Air Flow Fraction
  DesignDay,                              !- Heating Design Air Flow Method
  ,                                       !- Heating Design Air Flow Rate {m3/s}
  ,                                       !- Heating Maximum Air Flow per Zone Floor Area {m3/s-m2}
  ,                                       !- Heating Maximum Air Flow {m3/s}
  ,                                       !- Heating Maximum Air Flow Fraction
  ,                                       !- Design Zone Air Distribution Effectiveness in Cooling Mode
  ,                                       !- Design Zone Air Distribution Effectiveness in Heating Mode
  No,                                     !- Account for Dedicated Outdoor Air System
  NeutralSupplyAir,                       !- Dedicated Outdoor Air System Control Strategy
  autosize,                               !- Dedicated Outdoor Air Low Setpoint Temperature for Design {C}
  autosize;                               !- Dedicated Outdoor Air High Setpoint Temperature for Design {C}

OS:ZoneHVAC:EquipmentList,
  {e110d065-1d7a-41b0-a486-8a3e90fadcb1}, !- Handle
  Zone HVAC Equipment List 1,             !- Name
  {5ee45979-560d-4b7e-a0a8-a3f65d8145d9}; !- Thermal Zone

OS:ThermalZone,
  {82e36f46-86de-4c7f-9997-f17215a1cfd8}, !- Handle
  garage zone,                            !- Name
  ,                                       !- Multiplier
  ,                                       !- Ceiling Height {m}
  ,                                       !- Volume {m3}
  ,                                       !- Floor Area {m2}
  ,                                       !- Zone Inside Convection Algorithm
  ,                                       !- Zone Outside Convection Algorithm
  ,                                       !- Zone Conditioning Equipment List Name
  {ed1ce20b-a5b1-4ad2-ad37-0d47d1bc3283}, !- Zone Air Inlet Port List
  {2a0cbcb7-9c1e-4673-8b11-eacb6d9981ab}, !- Zone Air Exhaust Port List
  {1f0dfa4e-3396-41b9-9453-b656d7aa001c}, !- Zone Air Node Name
  ,                                       !- Zone Return Air Node Name
  ,                                       !- Primary Daylighting Control Name
  ,                                       !- Fraction of Zone Controlled by Primary Daylighting Control
  ,                                       !- Secondary Daylighting Control Name
  ,                                       !- Fraction of Zone Controlled by Secondary Daylighting Control
  ,                                       !- Illuminance Map Name
  ,                                       !- Group Rendering Name
  ,                                       !- Thermostat Name
  No;                                     !- Use Ideal Air Loads

OS:Node,
  {98f21835-4432-4bfd-a66d-05026ef2ee7d}, !- Handle
  Node 2,                                 !- Name
  {1f0dfa4e-3396-41b9-9453-b656d7aa001c}, !- Inlet Port
  ;                                       !- Outlet Port

OS:Connection,
  {1f0dfa4e-3396-41b9-9453-b656d7aa001c}, !- Handle
  {c2c10ef3-84ce-4c50-a225-5a8e8bbe06c4}, !- Name
  {82e36f46-86de-4c7f-9997-f17215a1cfd8}, !- Source Object
  11,                                     !- Outlet Port
  {98f21835-4432-4bfd-a66d-05026ef2ee7d}, !- Target Object
  2;                                      !- Inlet Port

OS:PortList,
  {ed1ce20b-a5b1-4ad2-ad37-0d47d1bc3283}, !- Handle
  Port List 3,                            !- Name
  {82e36f46-86de-4c7f-9997-f17215a1cfd8}; !- HVAC Component

OS:PortList,
  {2a0cbcb7-9c1e-4673-8b11-eacb6d9981ab}, !- Handle
  Port List 4,                            !- Name
  {82e36f46-86de-4c7f-9997-f17215a1cfd8}; !- HVAC Component

OS:Sizing:Zone,
  {bda1b3dd-31fa-448a-bd92-59c619ee8db0}, !- Handle
  {82e36f46-86de-4c7f-9997-f17215a1cfd8}, !- Zone or ZoneList Name
  SupplyAirTemperature,                   !- Zone Cooling Design Supply Air Temperature Input Method
  14,                                     !- Zone Cooling Design Supply Air Temperature {C}
  11.11,                                  !- Zone Cooling Design Supply Air Temperature Difference {deltaC}
  SupplyAirTemperature,                   !- Zone Heating Design Supply Air Temperature Input Method
  40,                                     !- Zone Heating Design Supply Air Temperature {C}
  11.11,                                  !- Zone Heating Design Supply Air Temperature Difference {deltaC}
  0.0085,                                 !- Zone Cooling Design Supply Air Humidity Ratio {kg-H2O/kg-air}
  0.008,                                  !- Zone Heating Design Supply Air Humidity Ratio {kg-H2O/kg-air}
  ,                                       !- Zone Heating Sizing Factor
  ,                                       !- Zone Cooling Sizing Factor
  DesignDay,                              !- Cooling Design Air Flow Method
  ,                                       !- Cooling Design Air Flow Rate {m3/s}
  ,                                       !- Cooling Minimum Air Flow per Zone Floor Area {m3/s-m2}
  ,                                       !- Cooling Minimum Air Flow {m3/s}
  ,                                       !- Cooling Minimum Air Flow Fraction
  DesignDay,                              !- Heating Design Air Flow Method
  ,                                       !- Heating Design Air Flow Rate {m3/s}
  ,                                       !- Heating Maximum Air Flow per Zone Floor Area {m3/s-m2}
  ,                                       !- Heating Maximum Air Flow {m3/s}
  ,                                       !- Heating Maximum Air Flow Fraction
  ,                                       !- Design Zone Air Distribution Effectiveness in Cooling Mode
  ,                                       !- Design Zone Air Distribution Effectiveness in Heating Mode
  No,                                     !- Account for Dedicated Outdoor Air System
  NeutralSupplyAir,                       !- Dedicated Outdoor Air System Control Strategy
  autosize,                               !- Dedicated Outdoor Air Low Setpoint Temperature for Design {C}
  autosize;                               !- Dedicated Outdoor Air High Setpoint Temperature for Design {C}

OS:ZoneHVAC:EquipmentList,
  {62ff7749-a211-4360-9dbf-657c1d1e3e2a}, !- Handle
  Zone HVAC Equipment List 2,             !- Name
  {82e36f46-86de-4c7f-9997-f17215a1cfd8}; !- Thermal Zone

OS:Space,
  {62ad4562-45ff-47db-99eb-d54f89edff74}, !- Handle
  garage space,                           !- Name
  ,                                       !- Space Type Name
  ,                                       !- Default Construction Set Name
  ,                                       !- Default Schedule Set Name
  -0,                                     !- Direction of Relative North {deg}
  0,                                      !- X Origin {m}
  0,                                      !- Y Origin {m}
  0,                                      !- Z Origin {m}
  ,                                       !- Building Story Name
  {82e36f46-86de-4c7f-9997-f17215a1cfd8}, !- Thermal Zone Name
  ,                                       !- Part of Total Floor Area
  ,                                       !- Design Specification Outdoor Air Object Name
  {870afa40-df64-4df7-a626-5bc19ede7d24}; !- Building Unit Name

OS:Surface,
  {f7397f26-57a9-4584-ae96-a635e84e27e8}, !- Handle
  Surface 1,                              !- Name
  Floor,                                  !- Surface Type
  ,                                       !- Construction Name
  {62ad4562-45ff-47db-99eb-d54f89edff74}, !- Space Name
  Ground,                                 !- Outside Boundary Condition
  ,                                       !- Outside Boundary Condition Object
  NoSun,                                  !- Sun Exposure
  NoWind,                                 !- Wind Exposure
  ,                                       !- View Factor to Ground
  ,                                       !- Number of Vertices
  5.57695129776527, -3.048, 0,            !- X,Y,Z Vertex 1 {m}
  5.57695129776527, 3.048, 0,             !- X,Y,Z Vertex 2 {m}
  11.6729512977653, 3.048, 0,             !- X,Y,Z Vertex 3 {m}
  11.6729512977653, -3.048, 0;            !- X,Y,Z Vertex 4 {m}

OS:Surface,
  {42730154-9f2d-43ab-b3c9-4938e58a6313}, !- Handle
  Surface 2,                              !- Name
  Wall,                                   !- Surface Type
  ,                                       !- Construction Name
  {62ad4562-45ff-47db-99eb-d54f89edff74}, !- Space Name
  Surface,                                !- Outside Boundary Condition
  {27289e10-609f-4861-bc1f-92aa92369cba}, !- Outside Boundary Condition Object
  NoSun,                                  !- Sun Exposure
  NoWind,                                 !- Wind Exposure
  ,                                       !- View Factor to Ground
  ,                                       !- Number of Vertices
  5.57695129776527, 3.048, 2.4384,        !- X,Y,Z Vertex 1 {m}
  5.57695129776527, 3.048, 0,             !- X,Y,Z Vertex 2 {m}
  5.57695129776527, 0, 0,                 !- X,Y,Z Vertex 3 {m}
  5.57695129776527, 0, 2.4384;            !- X,Y,Z Vertex 4 {m}

OS:Surface,
  {6a157b99-6b65-4d6c-999e-66d37f76f63b}, !- Handle
  Surface 3,                              !- Name
  Wall,                                   !- Surface Type
  ,                                       !- Construction Name
  {62ad4562-45ff-47db-99eb-d54f89edff74}, !- Space Name
  Surface,                                !- Outside Boundary Condition
  {99f7ef8d-baba-408d-85fd-41257ae4ce7c}, !- Outside Boundary Condition Object
  NoSun,                                  !- Sun Exposure
  NoWind,                                 !- Wind Exposure
  ,                                       !- View Factor to Ground
  ,                                       !- Number of Vertices
  11.6729512977653, 3.048, 2.4384,        !- X,Y,Z Vertex 1 {m}
  11.6729512977653, 3.048, 0,             !- X,Y,Z Vertex 2 {m}
  5.57695129776527, 3.048, 0,             !- X,Y,Z Vertex 3 {m}
  5.57695129776527, 3.048, 2.4384;        !- X,Y,Z Vertex 4 {m}

OS:Surface,
  {2148d208-7151-466c-b6a4-d696d1e1a584}, !- Handle
  Surface 4,                              !- Name
  Wall,                                   !- Surface Type
  ,                                       !- Construction Name
  {62ad4562-45ff-47db-99eb-d54f89edff74}, !- Space Name
  Outdoors,                               !- Outside Boundary Condition
  ,                                       !- Outside Boundary Condition Object
  SunExposed,                             !- Sun Exposure
  WindExposed,                            !- Wind Exposure
  ,                                       !- View Factor to Ground
  ,                                       !- Number of Vertices
  11.6729512977653, -3.048, 2.4384,       !- X,Y,Z Vertex 1 {m}
  11.6729512977653, -3.048, 0,            !- X,Y,Z Vertex 2 {m}
  11.6729512977653, 3.048, 0,             !- X,Y,Z Vertex 3 {m}
  11.6729512977653, 3.048, 2.4384;        !- X,Y,Z Vertex 4 {m}

OS:Surface,
  {08c52d9c-2e5f-4f7e-8383-739c1237cc70}, !- Handle
  Surface 5,                              !- Name
  Wall,                                   !- Surface Type
  ,                                       !- Construction Name
  {62ad4562-45ff-47db-99eb-d54f89edff74}, !- Space Name
  Outdoors,                               !- Outside Boundary Condition
  ,                                       !- Outside Boundary Condition Object
  SunExposed,                             !- Sun Exposure
  WindExposed,                            !- Wind Exposure
  ,                                       !- View Factor to Ground
  ,                                       !- Number of Vertices
  5.57695129776527, -3.048, 2.4384,       !- X,Y,Z Vertex 1 {m}
  5.57695129776527, -3.048, 0,            !- X,Y,Z Vertex 2 {m}
  11.6729512977653, -3.048, 0,            !- X,Y,Z Vertex 3 {m}
  11.6729512977653, -3.048, 2.4384;       !- X,Y,Z Vertex 4 {m}

OS:Surface,
  {bbb98950-a032-46db-9186-f54089583651}, !- Handle
  Surface 6,                              !- Name
  RoofCeiling,                            !- Surface Type
  ,                                       !- Construction Name
  {62ad4562-45ff-47db-99eb-d54f89edff74}, !- Space Name
  Surface,                                !- Outside Boundary Condition
  {8e9b5059-1e5d-46d6-8fcc-6e6171908f6a}, !- Outside Boundary Condition Object
  NoSun,                                  !- Sun Exposure
  NoWind,                                 !- Wind Exposure
  ,                                       !- View Factor to Ground
  ,                                       !- Number of Vertices
  11.6729512977653, -3.048, 2.4384,       !- X,Y,Z Vertex 1 {m}
  11.6729512977653, 3.048, 2.4384,        !- X,Y,Z Vertex 2 {m}
  5.57695129776527, 3.048, 2.4384,        !- X,Y,Z Vertex 3 {m}
  5.57695129776527, 0, 2.4384,            !- X,Y,Z Vertex 4 {m}
  5.57695129776527, -3.048, 2.4384;       !- X,Y,Z Vertex 5 {m}

OS:Space,
  {d4c204d9-2c71-47b8-815b-b8e4f6eb2d02}, !- Handle
  living space,                           !- Name
  ,                                       !- Space Type Name
  ,                                       !- Default Construction Set Name
  ,                                       !- Default Schedule Set Name
  -0,                                     !- Direction of Relative North {deg}
  0,                                      !- X Origin {m}
  0,                                      !- Y Origin {m}
  0,                                      !- Z Origin {m}
  ,                                       !- Building Story Name
  {5ee45979-560d-4b7e-a0a8-a3f65d8145d9}, !- Thermal Zone Name
  ,                                       !- Part of Total Floor Area
  ,                                       !- Design Specification Outdoor Air Object Name
  {870afa40-df64-4df7-a626-5bc19ede7d24}; !- Building Unit Name

OS:Surface,
  {5ebed2fa-2323-47f4-94b7-d19a35fb7615}, !- Handle
  Surface 7,                              !- Name
  Floor,                                  !- Surface Type
  ,                                       !- Construction Name
  {d4c204d9-2c71-47b8-815b-b8e4f6eb2d02}, !- Space Name
  Surface,                                !- Outside Boundary Condition
  {c07f960d-610f-47d3-b1ee-baafa9bdb67d}, !- Outside Boundary Condition Object
  NoSun,                                  !- Sun Exposure
  NoWind,                                 !- Wind Exposure
  ,                                       !- View Factor to Ground
  ,                                       !- Number of Vertices
  0, 0, 0,                                !- X,Y,Z Vertex 1 {m}
  0, 5.83647564888264, 0,                 !- X,Y,Z Vertex 2 {m}
  11.6729512977653, 5.83647564888264, 0,  !- X,Y,Z Vertex 3 {m}
  11.6729512977653, 3.048, 0,             !- X,Y,Z Vertex 4 {m}
  5.57695129776527, 3.048, 0,             !- X,Y,Z Vertex 5 {m}
  5.57695129776527, 0, 0;                 !- X,Y,Z Vertex 6 {m}

OS:Surface,
  {1ae8b209-40d6-4251-88b3-0b71ed60e60e}, !- Handle
  Surface 8,                              !- Name
  Wall,                                   !- Surface Type
  ,                                       !- Construction Name
  {d4c204d9-2c71-47b8-815b-b8e4f6eb2d02}, !- Space Name
  Outdoors,                               !- Outside Boundary Condition
  ,                                       !- Outside Boundary Condition Object
  SunExposed,                             !- Sun Exposure
  WindExposed,                            !- Wind Exposure
  ,                                       !- View Factor to Ground
  ,                                       !- Number of Vertices
  0, 5.83647564888264, 2.4384,            !- X,Y,Z Vertex 1 {m}
  0, 5.83647564888264, 0,                 !- X,Y,Z Vertex 2 {m}
  0, 0, 0,                                !- X,Y,Z Vertex 3 {m}
  0, 0, 2.4384;                           !- X,Y,Z Vertex 4 {m}

OS:Surface,
  {22242ac1-897f-466e-a7bb-a71ba01f678f}, !- Handle
  Surface 9,                              !- Name
  Wall,                                   !- Surface Type
  ,                                       !- Construction Name
  {d4c204d9-2c71-47b8-815b-b8e4f6eb2d02}, !- Space Name
  Outdoors,                               !- Outside Boundary Condition
  ,                                       !- Outside Boundary Condition Object
  SunExposed,                             !- Sun Exposure
  WindExposed,                            !- Wind Exposure
  ,                                       !- View Factor to Ground
  ,                                       !- Number of Vertices
  11.6729512977653, 5.83647564888264, 2.4384, !- X,Y,Z Vertex 1 {m}
  11.6729512977653, 5.83647564888264, 0,  !- X,Y,Z Vertex 2 {m}
  0, 5.83647564888264, 0,                 !- X,Y,Z Vertex 3 {m}
  0, 5.83647564888264, 2.4384;            !- X,Y,Z Vertex 4 {m}

OS:Surface,
  {e624ba2f-abb3-4291-96a9-6cf74a4f4a87}, !- Handle
  Surface 10,                             !- Name
  Wall,                                   !- Surface Type
  ,                                       !- Construction Name
  {d4c204d9-2c71-47b8-815b-b8e4f6eb2d02}, !- Space Name
  Outdoors,                               !- Outside Boundary Condition
  ,                                       !- Outside Boundary Condition Object
  SunExposed,                             !- Sun Exposure
  WindExposed,                            !- Wind Exposure
  ,                                       !- View Factor to Ground
  ,                                       !- Number of Vertices
  11.6729512977653, 3.048, 2.4384,        !- X,Y,Z Vertex 1 {m}
  11.6729512977653, 3.048, 0,             !- X,Y,Z Vertex 2 {m}
  11.6729512977653, 5.83647564888264, 0,  !- X,Y,Z Vertex 3 {m}
  11.6729512977653, 5.83647564888264, 2.4384; !- X,Y,Z Vertex 4 {m}

OS:Surface,
  {99f7ef8d-baba-408d-85fd-41257ae4ce7c}, !- Handle
  Surface 11,                             !- Name
  Wall,                                   !- Surface Type
  ,                                       !- Construction Name
  {d4c204d9-2c71-47b8-815b-b8e4f6eb2d02}, !- Space Name
  Surface,                                !- Outside Boundary Condition
  {6a157b99-6b65-4d6c-999e-66d37f76f63b}, !- Outside Boundary Condition Object
  NoSun,                                  !- Sun Exposure
  NoWind,                                 !- Wind Exposure
  ,                                       !- View Factor to Ground
  ,                                       !- Number of Vertices
  5.57695129776527, 3.048, 2.4384,        !- X,Y,Z Vertex 1 {m}
  5.57695129776527, 3.048, 0,             !- X,Y,Z Vertex 2 {m}
  11.6729512977653, 3.048, 0,             !- X,Y,Z Vertex 3 {m}
  11.6729512977653, 3.048, 2.4384;        !- X,Y,Z Vertex 4 {m}

OS:Surface,
  {27289e10-609f-4861-bc1f-92aa92369cba}, !- Handle
  Surface 12,                             !- Name
  Wall,                                   !- Surface Type
  ,                                       !- Construction Name
  {d4c204d9-2c71-47b8-815b-b8e4f6eb2d02}, !- Space Name
  Surface,                                !- Outside Boundary Condition
  {42730154-9f2d-43ab-b3c9-4938e58a6313}, !- Outside Boundary Condition Object
  NoSun,                                  !- Sun Exposure
  NoWind,                                 !- Wind Exposure
  ,                                       !- View Factor to Ground
  ,                                       !- Number of Vertices
  5.57695129776527, 0, 2.4384,            !- X,Y,Z Vertex 1 {m}
  5.57695129776527, 0, 0,                 !- X,Y,Z Vertex 2 {m}
  5.57695129776527, 3.048, 0,             !- X,Y,Z Vertex 3 {m}
  5.57695129776527, 3.048, 2.4384;        !- X,Y,Z Vertex 4 {m}

OS:Surface,
  {fa96c828-1712-433a-81ca-d209c306f14c}, !- Handle
  Surface 13,                             !- Name
  Wall,                                   !- Surface Type
  ,                                       !- Construction Name
  {d4c204d9-2c71-47b8-815b-b8e4f6eb2d02}, !- Space Name
  Outdoors,                               !- Outside Boundary Condition
  ,                                       !- Outside Boundary Condition Object
  SunExposed,                             !- Sun Exposure
  WindExposed,                            !- Wind Exposure
  ,                                       !- View Factor to Ground
  ,                                       !- Number of Vertices
  0, 0, 2.4384,                           !- X,Y,Z Vertex 1 {m}
  0, 0, 0,                                !- X,Y,Z Vertex 2 {m}
  5.57695129776527, 0, 0,                 !- X,Y,Z Vertex 3 {m}
  5.57695129776527, 0, 2.4384;            !- X,Y,Z Vertex 4 {m}

OS:Surface,
  {c8b7741b-368d-4d2a-b350-d631ce9af57b}, !- Handle
  Surface 14,                             !- Name
  RoofCeiling,                            !- Surface Type
  ,                                       !- Construction Name
  {d4c204d9-2c71-47b8-815b-b8e4f6eb2d02}, !- Space Name
  Surface,                                !- Outside Boundary Condition
  {f15a9a7d-2482-42b3-b627-e2b9bb4acf54}, !- Outside Boundary Condition Object
  NoSun,                                  !- Sun Exposure
  NoWind,                                 !- Wind Exposure
  ,                                       !- View Factor to Ground
  ,                                       !- Number of Vertices
  5.57695129776527, 0, 2.4384,            !- X,Y,Z Vertex 1 {m}
  5.57695129776527, 3.048, 2.4384,        !- X,Y,Z Vertex 2 {m}
  11.6729512977653, 3.048, 2.4384,        !- X,Y,Z Vertex 3 {m}
  11.6729512977653, 5.83647564888264, 2.4384, !- X,Y,Z Vertex 4 {m}
  0, 5.83647564888264, 2.4384,            !- X,Y,Z Vertex 5 {m}
  0, 0, 2.4384;                           !- X,Y,Z Vertex 6 {m}

OS:Space,
  {f345123f-f7fd-4c6c-860d-ad6d36d81e16}, !- Handle
  living space|story 2,                   !- Name
  ,                                       !- Space Type Name
  ,                                       !- Default Construction Set Name
  ,                                       !- Default Schedule Set Name
  -0,                                     !- Direction of Relative North {deg}