
OS:Version,
  {a7d646a0-a00d-4029-b6c8-9f9f95765383}, !- Handle
  1.14.0;                                 !- Version Identifier

OS:Building,
  {bf305633-c5a1-4881-9edf-ca5e1a8e1274}, !- Handle
  Building,                               !- Name
  ,                                       !- Building Sector Type
  ,                                       !- North Axis {deg}
  ,                                       !- Nominal Floor to Floor Height {m}
  ,                                       !- Space Type Name
  ,                                       !- Default Construction Set Name
  ,                                       !- Default Schedule Set Name
  3,                                      !- Standards Number of Stories
  2,                                      !- Standards Number of Above Ground Stories
  SingleFamilyDetached,                   !- Standards Building Type
  1;                                      !- Standards Number of Living Units

OS:SimulationControl,
  {2c487a4c-bac9-4ac5-b669-1e49d9da7c2b}, !- Handle
  ,                                       !- Do Zone Sizing Calculation
  ,                                       !- Do System Sizing Calculation
  ,                                       !- Do Plant Sizing Calculation
  No,                                     !- Run Simulation for Sizing Periods
  ;                                       !- Run Simulation for Weather File Run Periods

OS:Timestep,
  {4ebc9f1e-4707-402e-9844-67eb1ffbd522}, !- Handle
  6;                                      !- Number of Timesteps per Hour

OS:RunPeriod,
  {28df894d-6af9-4fb8-8f56-df1753344aa3}, !- Handle
  Run Period,                             !- Name
  1,                                      !- Begin Month
  1,                                      !- Begin Day of Month
  12,                                     !- End Month
  31,                                     !- End Day of Month
  ,                                       !- Use Weather File Holidays and Special Days
  ,                                       !- Use Weather File Daylight Saving Period
  ,                                       !- Apply Weekend Holiday Rule
  ,                                       !- Use Weather File Rain Indicators
  ,                                       !- Use Weather File Snow Indicators
  ;                                       !- Number of Times Runperiod to be Repeated

OS:Sizing:Parameters,
  {dde5af6f-7923-4600-a28a-7556673a0266}, !- Handle
  1.0,                                    !- Heating Sizing Factor
  1.0;                                    !- Cooling Sizing Factor

OS:ShadowCalculation,
  {ca758bea-4416-4626-9bba-3d8795c79bd6}, !- Handle
  20,                                     !- Calculation Frequency
  200;                                    !- Maximum Figures in Shadow Overlap Calculations

OS:SurfaceConvectionAlgorithm:Inside,
  {aaabfc36-718a-4ab0-b622-f186ebb45230}, !- Handle
  TARP;                                   !- Algorithm

OS:SurfaceConvectionAlgorithm:Outside,
  {9a0a9f6f-4bbd-4b12-a121-9492a1fcd7d6}, !- Handle
  DOE-2;                                  !- Algorithm

OS:HeatBalanceAlgorithm,
  {9d93e563-e1e0-46d7-9e39-d1c8aceb7212}, !- Handle
  ConductionTransferFunction,             !- Algorithm
  200;                                    !- Surface Temperature Upper Limit {C}

OS:ZoneCapacitanceMultiplier:ResearchSpecial,
  {6bfced16-b16f-47f6-8223-f7e267d75d19}, !- Handle
  ,                                       !- Temperature Capacity Multiplier
  15,                                     !- Humidity Capacity Multiplier
  ;                                       !- Carbon Dioxide Capacity Multiplier

OS:Site,
  {1df79be7-9e6d-432a-9584-4603635bcdba}, !- Handle
  Denver Intl Ap_CO_USA,                  !- Name
  39.83,                                  !- Latitude {deg}
  -104.65,                                !- Longitude {deg}
  -7,                                     !- Time Zone {hr}
  1650,                                   !- Elevation {m}
  ;                                       !- Terrain

OS:WeatherFile,
  {2c104ea8-b2d9-425b-a4ce-69596aee8e38}, !- Handle
  Denver Intl Ap,                         !- City
  CO,                                     !- State Province Region
  USA,                                    !- Country
  TMY3,                                   !- Data Source
  725650,                                 !- WMO Number
  39.83,                                  !- Latitude {deg}
  -104.65,                                !- Longitude {deg}
  -7,                                     !- Time Zone {hr}
  1650,                                   !- Elevation {m}
  file:../tests/USA_CO_Denver_Intl_AP_725650_TMY3.epw, !- Url
  E23378AA;                               !- Checksum

OS:ClimateZones,
  {ce8c54a1-76b4-4301-b715-88806fd9dc28}, !- Handle
  ,                                       !- Active Institution
  ,                                       !- Active Year
  ,                                       !- Climate Zone Institution Name 1
  ,                                       !- Climate Zone Document Name 1
  ,                                       !- Climate Zone Document Year 1
  ,                                       !- Climate Zone Value 1
  Building America,                       !- Climate Zone Institution Name 2
  ,                                       !- Climate Zone Document Name 2
  0,                                      !- Climate Zone Document Year 2
  Cold;                                   !- Climate Zone Value 2

OS:SizingPeriod:DesignDay,
  {ebe077bc-20f0-4c49-b26a-5c7906412100}, !- Handle
  Denver Intl Ap Ann Htg 99% Condns DB,   !- Name
  -14,                                    !- Maximum Dry-Bulb Temperature {C}
  0,                                      !- Daily Dry-Bulb Temperature Range {deltaC}
  -14,                                    !- Humidity Indicating Conditions at Maximum Dry-Bulb
  83011,                                  !- Barometric Pressure {Pa}
  3.3,                                    !- Wind Speed {m/s}
  160,                                    !- Wind Direction {deg}
  0,                                      !- Sky Clearness
  0,                                      !- Rain Indicator
  0,                                      !- Snow Indicator
  21,                                     !- Day of Month
  12,                                     !- Month
  WinterDesignDay,                        !- Day Type
  0,                                      !- Daylight Saving Time Indicator
  Wetbulb,                                !- Humidity Indicating Type
  ,                                       !- Humidity Indicating Day Schedule Name
  DefaultMultipliers,                     !- Dry-Bulb Temperature Range Modifier Type
  ,                                       !- Dry-Bulb Temperature Range Modifier Schedule Name
  ASHRAEClearSky;                         !- Solar Model Indicator

OS:SizingPeriod:DesignDay,
  {88b9b7f0-83d8-4a53-9cb6-4d57f6f93bf2}, !- Handle
  Denver Intl Ap Ann Clg 1% Condns DB=>MWB, !- Name
  33.2,                                   !- Maximum Dry-Bulb Temperature {C}
  15.2,                                   !- Daily Dry-Bulb Temperature Range {deltaC}
  15.6,                                   !- Humidity Indicating Conditions at Maximum Dry-Bulb
  83011,                                  !- Barometric Pressure {Pa}
  4.2,                                    !- Wind Speed {m/s}
  80,                                     !- Wind Direction {deg}
  0,                                      !- Sky Clearness
  0,                                      !- Rain Indicator
  0,                                      !- Snow Indicator
  21,                                     !- Day of Month
  7,                                      !- Month
  SummerDesignDay,                        !- Day Type
  0,                                      !- Daylight Saving Time Indicator
  Wetbulb,                                !- Humidity Indicating Type
  ,                                       !- Humidity Indicating Day Schedule Name
  DefaultMultipliers,                     !- Dry-Bulb Temperature Range Modifier Type
  ,                                       !- Dry-Bulb Temperature Range Modifier Schedule Name
  ASHRAETau,                              !- Solar Model Indicator
  ,                                       !- Beam Solar Day Schedule Name
  ,                                       !- Diffuse Solar Day Schedule Name
  0.424,                                  !- ASHRAE Taub {dimensionless}
  2.012;                                  !- ASHRAE Taud {dimensionless}

OS:SizingPeriod:DesignDay,
  {119b0926-549e-4ef0-b41d-97813fbcd690}, !- Handle
  Denver Intl Ap Ann Clg 1% Condns WB=>MDB, !- Name
  27,                                     !- Maximum Dry-Bulb Temperature {C}
  15.2,                                   !- Daily Dry-Bulb Temperature Range {deltaC}
  17.6,                                   !- Humidity Indicating Conditions at Maximum Dry-Bulb
  83011,                                  !- Barometric Pressure {Pa}
  4.2,                                    !- Wind Speed {m/s}
  80,                                     !- Wind Direction {deg}
  0,                                      !- Sky Clearness
  0,                                      !- Rain Indicator
  0,                                      !- Snow Indicator
  21,                                     !- Day of Month
  7,                                      !- Month
  SummerDesignDay,                        !- Day Type
  0,                                      !- Daylight Saving Time Indicator
  Wetbulb,                                !- Humidity Indicating Type
  ,                                       !- Humidity Indicating Day Schedule Name
  DefaultMultipliers,                     !- Dry-Bulb Temperature Range Modifier Type
  ,                                       !- Dry-Bulb Temperature Range Modifier Schedule Name
  ASHRAETau,                              !- Solar Model Indicator
  ,                                       !- Beam Solar Day Schedule Name
  ,                                       !- Diffuse Solar Day Schedule Name
  0.424,                                  !- ASHRAE Taub {dimensionless}
  2.012;                                  !- ASHRAE Taud {dimensionless}

OS:Site:WaterMainsTemperature,
  {c167923d-cf17-43bc-9c3b-00bf137cd490}, !- Handle
  Correlation,                            !- Calculation Method
  ,                                       !- Temperature Schedule Name
  10.8753424657535,                       !- Annual Average Outdoor Air Temperature {C}
  23.1524007936508;                       !- Maximum Difference In Monthly Average Outdoor Air Temperatures {deltaC}

OS:RunPeriodControl:DaylightSavingTime,
  {f0bb5e5a-6aaf-4fee-b414-fca971e0ab8b}, !- Handle
  4/7,                                    !- Start Date
  10/26;                                  !- End Date

OS:YearDescription,
  {b683f40b-79f3-4bbd-ad5a-bc28ce8171c7}; !- Handle

OS:Site:GroundTemperature:BuildingSurface,
  {d729df4e-589c-4b49-b172-c61069546708}, !- Handle
  6.71220717182217,                       !- January Ground Temperature {C}
  4.94160315792055,                       !- February Ground Temperature {C}
  4.79814094732353,                       !- March Ground Temperature {C}
  5.63626323951138,                       !- April Ground Temperature {C}
  9.00496422788996,                       !- May Ground Temperature {C}
  12.3607918495591,                       !- June Ground Temperature {C}
  15.2732325604715,                       !- July Ground Temperature {C}
  17.1228426206644,                       !- August Ground Temperature {C}
  17.2883239591317,                       !- September Ground Temperature {C}
  15.7978912711895,                       !- October Ground Temperature {C}
  12.9685430093462,                       !- November Ground Temperature {C}
  9.71587840323366;                       !- December Ground Temperature {C}

OS:Site:GroundTemperature:Deep,
  {02170974-a172-4ac0-8d55-f65ed4faf2cc}, !- Handle
  10.8753424657535,                       !- January Deep Ground Temperature {C}
  10.8753424657535,                       !- February Deep Ground Temperature {C}
  10.8753424657535,                       !- March Deep Ground Temperature {C}
  10.8753424657535,                       !- April Deep Ground Temperature {C}
  10.8753424657535,                       !- May Deep Ground Temperature {C}
  10.8753424657535,                       !- June Deep Ground Temperature {C}
  10.8753424657535,                       !- July Deep Ground Temperature {C}
  10.8753424657535,                       !- August Deep Ground Temperature {C}
  10.8753424657535,                       !- September Deep Ground Temperature {C}
  10.8753424657535,                       !- October Deep Ground Temperature {C}
  10.8753424657535,                       !- November Deep Ground Temperature {C}
  10.8753424657535;                       !- December Deep Ground Temperature {C}

OS:ThermalZone,
  {49e1320a-55b7-46e8-bd0b-c20f3f37daa7}, !- Handle
  living zone,                            !- Name
  ,                                       !- Multiplier
  ,                                       !- Ceiling Height {m}
  ,                                       !- Volume {m3}
  ,                                       !- Floor Area {m2}
  ,                                       !- Zone Inside Convection Algorithm
  ,                                       !- Zone Outside Convection Algorithm
  ,                                       !- Zone Conditioning Equipment List Name
  {81541871-3177-4554-8eb4-f23d2bd8e851}, !- Zone Air Inlet Port List
  {8da107a9-92d9-4e67-87ad-ea0c9b861723}, !- Zone Air Exhaust Port List
  {f1d11fbc-e592-4880-87d2-da77c9e915ec}, !- Zone Air Node Name
  ,                                       !- Zone Return Air Node Name
  ,                                       !- Primary Daylighting Control Name
  ,                                       !- Fraction of Zone Controlled by Primary Daylighting Control
  ,                                       !- Secondary Daylighting Control Name
  ,                                       !- Fraction of Zone Controlled by Secondary Daylighting Control
  ,                                       !- Illuminance Map Name
  ,                                       !- Group Rendering Name
  ,                                       !- Thermostat Name
  No;                                     !- Use Ideal Air Loads

OS:Node,
  {d239dc1e-1d05-4abe-8e99-fbf329a0ee8a}, !- Handle
  Node 1,                                 !- Name
  {f1d11fbc-e592-4880-87d2-da77c9e915ec}, !- Inlet Port
  ;                                       !- Outlet Port

OS:Connection,
  {f1d11fbc-e592-4880-87d2-da77c9e915ec}, !- Handle
  {8a934af6-3c50-4c5c-a305-75d05bad1a92}, !- Name
  {49e1320a-55b7-46e8-bd0b-c20f3f37daa7}, !- Source Object
  11,                                     !- Outlet Port
  {d239dc1e-1d05-4abe-8e99-fbf329a0ee8a}, !- Target Object
  2;                                      !- Inlet Port

OS:PortList,
  {81541871-3177-4554-8eb4-f23d2bd8e851}, !- Handle
  Port List 1,                            !- Name
  {49e1320a-55b7-46e8-bd0b-c20f3f37daa7}; !- HVAC Component

OS:PortList,
  {8da107a9-92d9-4e67-87ad-ea0c9b861723}, !- Handle
  Port List 2,                            !- Name
  {49e1320a-55b7-46e8-bd0b-c20f3f37daa7}; !- HVAC Component

OS:Sizing:Zone,
  {540c4919-ec2c-46e6-bb2f-d58149f485be}, !- Handle
  {49e1320a-55b7-46e8-bd0b-c20f3f37daa7}, !- Zone or ZoneList Name
  SupplyAirTemperature,                   !- Zone Cooling Design Supply Air Temperature Input Method
  14,                                     !- Zone Cooling Design Supply Air Temperature {C}
  11.11,                                  !- Zone Cooling Design Supply Air Temperature Difference {deltaC}
  SupplyAirTemperature,                   !- Zone Heating Design Supply Air Temperature Input Method
  40,                                     !- Zone Heating Design Supply Air Temperature {C}
  11.11,                                  !- Zone Heating Design Supply Air Temperature Difference {deltaC}
  0.0085,                                 !- Zone Cooling Design Supply Air Humidity Ratio {kg-H2O/kg-air}
  0.008,                                  !- Zone Heating Design Supply Air Humidity Ratio {kg-H2O/kg-air}
  ,                                       !- Zone Heating Sizing Factor
  ,                                       !- Zone Cooling Sizing Factor
  DesignDay,                              !- Cooling Design Air Flow Method
  ,                                       !- Cooling Design Air Flow Rate {m3/s}
  ,                                       !- Cooling Minimum Air Flow per Zone Floor Area {m3/s-m2}
  ,                                       !- Cooling Minimum Air Flow {m3/s}
  ,                                       !- Cooling Minimum Air Flow Fraction
  DesignDay,                              !- Heating Design Air Flow Method
  ,                                       !- Heating Design Air Flow Rate {m3/s}
  ,                                       !- Heating Maximum Air Flow per Zone Floor Area {m3/s-m2}
  ,                                       !- Heating Maximum Air Flow {m3/s}
  ,                                       !- Heating Maximum Air Flow Fraction
  ,                                       !- Design Zone Air Distribution Effectiveness in Cooling Mode
  ,                                       !- Design Zone Air Distribution Effectiveness in Heating Mode
  No,                                     !- Account for Dedicated Outdoor Air System
  NeutralSupplyAir,                       !- Dedicated Outdoor Air System Control Strategy
  autosize,                               !- Dedicated Outdoor Air Low Setpoint Temperature for Design {C}
  autosize;                               !- Dedicated Outdoor Air High Setpoint Temperature for Design {C}

OS:ZoneHVAC:EquipmentList,
  {ab010317-107b-41e5-875b-c66d6b257d11}, !- Handle
  Zone HVAC Equipment List 1,             !- Name
  {49e1320a-55b7-46e8-bd0b-c20f3f37daa7}; !- Thermal Zone

OS:Space,
  {9845c116-4a7d-4d0b-bd32-af573a96471c}, !- Handle
  living space,                           !- Name
  ,                                       !- Space Type Name
  ,                                       !- Default Construction Set Name
  ,                                       !- Default Schedule Set Name
  -0,                                     !- Direction of Relative North {deg}
  0,                                      !- X Origin {m}
  0,                                      !- Y Origin {m}
  0,                                      !- Z Origin {m}
  ,                                       !- Building Story Name
  {49e1320a-55b7-46e8-bd0b-c20f3f37daa7}, !- Thermal Zone Name
  ,                                       !- Part of Total Floor Area
  ,                                       !- Design Specification Outdoor Air Object Name
  {d872b7a3-2c39-4bc8-93bc-f213dfea0aa7}; !- Building Unit Name

OS:Surface,
  {a1ae9ef1-4335-45fd-b48e-d4d796fd2ae4}, !- Handle
  Surface 1,                              !- Name
  Floor,                                  !- Surface Type
  ,                                       !- Construction Name
  {9845c116-4a7d-4d0b-bd32-af573a96471c}, !- Space Name
  Surface,                                !- Outside Boundary Condition
  {9d6e2973-8cec-4761-8ece-91c017387aa3}, !- Outside Boundary Condition Object
  NoSun,                                  !- Sun Exposure
  NoWind,                                 !- Wind Exposure
  ,                                       !- View Factor to Ground
  ,                                       !- Number of Vertices
  0, 0, 0,                                !- X,Y,Z Vertex 1 {m}
  0, 5.56486118425249, 0,                 !- X,Y,Z Vertex 2 {m}
  11.129722368505, 5.56486118425249, 0,   !- X,Y,Z Vertex 3 {m}
  11.129722368505, 0, 0;                  !- X,Y,Z Vertex 4 {m}

OS:Surface,
  {b5e2e67d-6ea1-4469-9633-31dfe6285503}, !- Handle
  Surface 2,                              !- Name
  Wall,                                   !- Surface Type
  ,                                       !- Construction Name
  {9845c116-4a7d-4d0b-bd32-af573a96471c}, !- Space Name
  Outdoors,                               !- Outside Boundary Condition
  ,                                       !- Outside Boundary Condition Object
  SunExposed,                             !- Sun Exposure
  WindExposed,                            !- Wind Exposure
  ,                                       !- View Factor to Ground
  ,                                       !- Number of Vertices
  0, 5.56486118425249, 2.4384,            !- X,Y,Z Vertex 1 {m}
  0, 5.56486118425249, 0,                 !- X,Y,Z Vertex 2 {m}
  0, 0, 0,                                !- X,Y,Z Vertex 3 {m}
  0, 0, 2.4384;                           !- X,Y,Z Vertex 4 {m}

OS:Surface,
  {7928bacf-2396-4e01-8bff-b914c0f21314}, !- Handle
  Surface 3,                              !- Name
  Wall,                                   !- Surface Type
  ,                                       !- Construction Name
  {9845c116-4a7d-4d0b-bd32-af573a96471c}, !- Space Name
  Outdoors,                               !- Outside Boundary Condition
  ,                                       !- Outside Boundary Condition Object
  SunExposed,                             !- Sun Exposure
  WindExposed,                            !- Wind Exposure
  ,                                       !- View Factor to Ground
  ,                                       !- Number of Vertices
  11.129722368505, 5.56486118425249, 2.4384, !- X,Y,Z Vertex 1 {m}
  11.129722368505, 5.56486118425249, 0,   !- X,Y,Z Vertex 2 {m}
  0, 5.56486118425249, 0,                 !- X,Y,Z Vertex 3 {m}
  0, 5.56486118425249, 2.4384;            !- X,Y,Z Vertex 4 {m}

OS:Surface,
  {497a7e73-b708-4c3a-bbd8-c386191bc72b}, !- Handle
  Surface 4,                              !- Name
  Wall,                                   !- Surface Type
  ,                                       !- Construction Name
  {9845c116-4a7d-4d0b-bd32-af573a96471c}, !- Space Name
  Outdoors,                               !- Outside Boundary Condition
  ,                                       !- Outside Boundary Condition Object
  SunExposed,                             !- Sun Exposure
  WindExposed,                            !- Wind Exposure
  ,                                       !- View Factor to Ground
  ,                                       !- Number of Vertices
  11.129722368505, 0, 2.4384,             !- X,Y,Z Vertex 1 {m}
  11.129722368505, 0, 0,                  !- X,Y,Z Vertex 2 {m}
  11.129722368505, 5.56486118425249, 0,   !- X,Y,Z Vertex 3 {m}
  11.129722368505, 5.56486118425249, 2.4384; !- X,Y,Z Vertex 4 {m}

OS:Surface,
  {3681790a-bc9a-4993-a19b-a8c6a37572f6}, !- Handle
  Surface 5,                              !- Name
  Wall,                                   !- Surface Type
  ,                                       !- Construction Name
  {9845c116-4a7d-4d0b-bd32-af573a96471c}, !- Space Name
  Outdoors,                               !- Outside Boundary Condition
  ,                                       !- Outside Boundary Condition Object
  SunExposed,                             !- Sun Exposure
  WindExposed,                            !- Wind Exposure
  ,                                       !- View Factor to Ground
  ,                                       !- Number of Vertices
  0, 0, 2.4384,                           !- X,Y,Z Vertex 1 {m}
  0, 0, 0,                                !- X,Y,Z Vertex 2 {m}
  11.129722368505, 0, 0,                  !- X,Y,Z Vertex 3 {m}
  11.129722368505, 0, 2.4384;             !- X,Y,Z Vertex 4 {m}

OS:Surface,
  {e4f0f009-025c-4299-aaa4-d6ca4c7018bd}, !- Handle
  Surface 6,                              !- Name
  RoofCeiling,                            !- Surface Type
  ,                                       !- Construction Name
  {9845c116-4a7d-4d0b-bd32-af573a96471c}, !- Space Name
  Surface,                                !- Outside Boundary Condition
  {0ae73a73-ea53-46ed-b981-124373cc7287}, !- Outside Boundary Condition Object
  NoSun,                                  !- Sun Exposure
  NoWind,                                 !- Wind Exposure
  ,                                       !- View Factor to Ground
  ,                                       !- Number of Vertices
  11.129722368505, 0, 2.4384,             !- X,Y,Z Vertex 1 {m}
  11.129722368505, 5.56486118425249, 2.4384, !- X,Y,Z Vertex 2 {m}
  0, 5.56486118425249, 2.4384,            !- X,Y,Z Vertex 3 {m}
  0, 0, 2.4384;                           !- X,Y,Z Vertex 4 {m}

OS:Space,
  {967e940f-ad53-4980-ad3f-6d22210e934e}, !- Handle
  living space|story 2,                   !- Name
  ,                                       !- Space Type Name
  ,                                       !- Default Construction Set Name
  ,                                       !- Default Schedule Set Name
  -0,                                     !- Direction of Relative North {deg}
  0,                                      !- X Origin {m}
  0,                                      !- Y Origin {m}
  2.4384,                                 !- Z Origin {m}
  ,                                       !- Building Story Name
  {49e1320a-55b7-46e8-bd0b-c20f3f37daa7}, !- Thermal Zone Name
  ,                                       !- Part of Total Floor Area
  ,                                       !- Design Specification Outdoor Air Object Name
  {d872b7a3-2c39-4bc8-93bc-f213dfea0aa7}; !- Building Unit Name

OS:Surface,
  {0ae73a73-ea53-46ed-b981-124373cc7287}, !- Handle
  Surface 7,                              !- Name
  Floor,                                  !- Surface Type
  ,                                       !- Construction Name
  {967e940f-ad53-4980-ad3f-6d22210e934e}, !- Space Name
  Surface,                                !- Outside Boundary Condition
  {e4f0f009-025c-4299-aaa4-d6ca4c7018bd}, !- Outside Boundary Condition Object
  NoSun,                                  !- Sun Exposure
  NoWind,                                 !- Wind Exposure
  ,                                       !- View Factor to Ground
  ,                                       !- Number of Vertices
  0, 0, 0,                                !- X,Y,Z Vertex 1 {m}
  0, 5.56486118425249, 0,                 !- X,Y,Z Vertex 2 {m}
  11.129722368505, 5.56486118425249, 0,   !- X,Y,Z Vertex 3 {m}
  11.129722368505, 0, 0;                  !- X,Y,Z Vertex 4 {m}

OS:Surface,
  {5dc06ed3-bdce-4c47-b6bc-93c17c420558}, !- Handle
  Surface 8,                              !- Name
  Wall,                                   !- Surface Type
  ,                                       !- Construction Name
  {967e940f-ad53-4980-ad3f-6d22210e934e}, !- Space Name
  Outdoors,                               !- Outside Boundary Condition
  ,                                       !- Outside Boundary Condition Object
  SunExposed,                             !- Sun Exposure
  WindExposed,                            !- Wind Exposure
  ,                                       !- View Factor to Ground
  ,                                       !- Number of Vertices
  0, 5.56486118425249, 2.4384,            !- X,Y,Z Vertex 1 {m}
  0, 5.56486118425249, 0,                 !- X,Y,Z Vertex 2 {m}
  0, 0, 0,                                !- X,Y,Z Vertex 3 {m}
  0, 0, 2.4384;                           !- X,Y,Z Vertex 4 {m}

OS:Surface,
  {eeaaef84-0ad1-4e7e-bebe-e0d377b94cca}, !- Handle
  Surface 9,                              !- Name
  Wall,                                   !- Surface Type
  ,                                       !- Construction Name
  {967e940f-ad53-4980-ad3f-6d22210e934e}, !- Space Name
  Outdoors,                               !- Outside Boundary Condition
  ,                                       !- Outside Boundary Condition Object
  SunExposed,                             !- Sun Exposure
  WindExposed,                            !- Wind Exposure
  ,                                       !- View Factor to Ground
  ,                                       !- Number of Vertices
  11.129722368505, 5.56486118425249, 2.4384, !- X,Y,Z Vertex 1 {m}
  11.129722368505, 5.56486118425249, 0,   !- X,Y,Z Vertex 2 {m}
  0, 5.56486118425249, 0,                 !- X,Y,Z Vertex 3 {m}
  0, 5.56486118425249, 2.4384;            !- X,Y,Z Vertex 4 {m}

OS:Surface,
  {6ca3dfcb-8045-470a-96c3-98a34fb1e662}, !- Handle
  Surface 10,                             !- Name
  Wall,                                   !- Surface Type
  ,                                       !- Construction Name
  {967e940f-ad53-4980-ad3f-6d22210e934e}, !- Space Name
  Outdoors,                               !- Outside Boundary Condition
  ,                                       !- Outside Boundary Condition Object
  SunExposed,                             !- Sun Exposure
  WindExposed,                            !- Wind Exposure
  ,                                       !- View Factor to Ground
  ,                                       !- Number of Vertices
  11.129722368505, 0, 2.4384,             !- X,Y,Z Vertex 1 {m}
  11.129722368505, 0, 0,                  !- X,Y,Z Vertex 2 {m}
  11.129722368505, 5.56486118425249, 0,   !- X,Y,Z Vertex 3 {m}
  11.129722368505, 5.56486118425249, 2.4384; !- X,Y,Z Vertex 4 {m}

OS:Surface,
  {30e075ff-9eec-4a17-8a99-b6aadc510593}, !- Handle
  Surface 11,                             !- Name
  Wall,                                   !- Surface Type
  ,                                       !- Construction Name
  {967e940f-ad53-4980-ad3f-6d22210e934e}, !- Space Name
  Outdoors,                               !- Outside Boundary Condition