
OS:Version,
  {46473ad5-0cbe-4cfa-af69-13dff2b3455f}, !- Handle
  1.3.1;                                  !- Version Identifier

OS:ElectricEquipment:Definition,
  {7289912a-a6d0-4c5f-97c8-585fac635841}, !- Handle
  18 cu ft. EF = 20.4 top freezer,        !- Name
  EquipmentLevel,                         !- Design Level Calculation Method
  56.0904635336789,                       !- Design Level {W}
  ,                                       !- Watts per Space Floor Area {W/m2}
  ,                                       !- Watts per Person {W/person}
  0,                                      !- Fraction Latent
  0,                                      !- Fraction Radiant
  0;                                      !- Fraction Lost

OS:Schedule:Ruleset,
  {be929cd9-419d-4d89-b756-d59a09943422}, !- Handle
  refrigerator_ruleset,                   !- Name
  ,                                       !- Schedule Type Limits Name
  {7034ce51-1a03-4e7a-a880-0a1f57ef0384}, !- Default Day Schedule Name
  {58a37796-4dd4-4daf-880b-8b733709b6fa}, !- Summer Design Day Schedule Name
  {88e0465c-5ed2-4546-994a-c2a47f4bf1fd}; !- Winter Design Day Schedule Name

OS:Schedule:Day,
  {7034ce51-1a03-4e7a-a880-0a1f57ef0384}, !- Handle
  Schedule Day 1,                         !- Name
  ,                                       !- Schedule Type Limits Name
  ,                                       !- Interpolate to Timestep
  24,                                     !- Hour 1
  0,                                      !- Minute 1
  0;                                      !- Value Until Time 1

OS:Schedule:Rule,
  {c869d9ea-695e-4d4d-9405-a60b1bd6752e}, !- Handle
  fridge_weekday_ruleset1,                !- Name
  {be929cd9-419d-4d89-b756-d59a09943422}, !- Schedule Ruleset Name
  23,                                     !- Rule Order
  {216f2137-e366-4eac-a84c-545e678cb374}, !- Day Schedule Name
  No,                                     !- Apply Sunday
  Yes,                                    !- Apply Monday
  Yes,                                    !- Apply Tuesday
  Yes,                                    !- Apply Wednesday
  Yes,                                    !- Apply Thursday
  Yes,                                    !- Apply Friday
  No,                                     !- Apply Saturday
  ,                                       !- Apply Holiday
  DateRange,                              !- Date Specification Type
  1,                                      !- Start Month
  1,                                      !- Start Day
  1,                                      !- End Month
  31;                                     !- End Day

OS:Schedule:Day,
  {216f2137-e366-4eac-a84c-545e678cb374}, !- Handle
  RefrigeratorWinter,                     !- Name
  ,                                       !- Schedule Type Limits Name
  ,                                       !- Interpolate to Timestep
  1,                                      !- Hour 1
  0,                                      !- Minute 1
  0.610948905109489,                      !- Value Until Time 1
  2,                                      !- Hour 2
  0,                                      !- Minute 2
  0.595675182481752,                      !- Value Until Time 2
  3,                                      !- Hour 3
  0,                                      !- Minute 3
  0.580401459854014,                      !- Value Until Time 3
  4,                                      !- Hour 4
  0,                                      !- Minute 4
  0.565127737226277,                      !- Value Until Time 4
  5,                                      !- Hour 5
  0,                                      !- Minute 5
  0.54985401459854,                       !- Value Until Time 5
  6,                                      !- Hour 6
  0,                                      !- Minute 6
  0.54985401459854,                       !- Value Until Time 6
  7,                                      !- Hour 7
  0,                                      !- Minute 7
  0.580401459854014,                      !- Value Until Time 7
  8,                                      !- Hour 8
  0,                                      !- Minute 8
  0.610948905109489,                      !- Value Until Time 8
  9,                                      !- Hour 9
  0,                                      !- Minute 9
  0.626222627737226,                      !- Value Until Time 9
  10,                                     !- Hour 10
  0,                                      !- Minute 10
  0.626222627737226,                      !- Value Until Time 10
  11,                                     !- Hour 11
  0,                                      !- Minute 11
  0.610948905109489,                      !- Value Until Time 11
  12,                                     !- Hour 12
  0,                                      !- Minute 12
  0.610948905109489,                      !- Value Until Time 12
  13,                                     !- Hour 13
  0,                                      !- Minute 13
  0.641496350364963,                      !- Value Until Time 13
  14,                                     !- Hour 14
  0,                                      !- Minute 14
  0.641496350364963,                      !- Value Until Time 14
  15,                                     !- Hour 15
  0,                                      !- Minute 15
  0.641496350364963,                      !- Value Until Time 15
  16,                                     !- Hour 16
  0,                                      !- Minute 16
  0.626222627737226,                      !- Value Until Time 16
  17,                                     !- Hour 17
  0,                                      !- Minute 17
  0.672043795620438,                      !- Value Until Time 17
  18,                                     !- Hour 18
  0,                                      !- Minute 18
  0.733138686131387,                      !- Value Until Time 18
  19,                                     !- Hour 19
  0,                                      !- Minute 19
  0.763686131386861,                      !- Value Until Time 19
  20,                                     !- Hour 20
  0,                                      !- Minute 20
  0.733138686131387,                      !- Value Until Time 20
  21,                                     !- Hour 21
  0,                                      !- Minute 21
  0.717864963503649,                      !- Value Until Time 21
  22,                                     !- Hour 22
  0,                                      !- Minute 22
  0.702591240875912,                      !- Value Until Time 22
  23,                                     !- Hour 23
  0,                                      !- Minute 23
  0.672043795620438,                      !- Value Until Time 23
  24,                                     !- Hour 24
  0,                                      !- Minute 24
  0.626222627737226;                      !- Value Until Time 24

OS:Schedule:Rule,
  {50bc0d61-e109-4ff3-8fb8-59ca18f07d1a}, !- Handle
  fridge_weekend_ruleset1,                !- Name
  {be929cd9-419d-4d89-b756-d59a09943422}, !- Schedule Ruleset Name
  22,                                     !- Rule Order
  {fe31e10c-00ff-42fb-99b1-125df710d639}, !- Day Schedule Name
  Yes,                                    !- Apply Sunday
  No,                                     !- Apply Monday
  No,                                     !- Apply Tuesday
  No,                                     !- Apply Wednesday
  No,                                     !- Apply Thursday
  No,                                     !- Apply Friday
  Yes,                                    !- Apply Saturday
  ,                                       !- Apply Holiday
  DateRange,                              !- Date Specification Type
  1,                                      !- Start Month
  1,                                      !- Start Day
  1,                                      !- End Month
  31;                                     !- End Day

OS:Schedule:Day,
  {fe31e10c-00ff-42fb-99b1-125df710d639}, !- Handle
  RefrigeratorWeekend1,                   !- Name
  ,                                       !- Schedule Type Limits Name
  ,                                       !- Interpolate to Timestep
  1,                                      !- Hour 1
  0,                                      !- Minute 1
  0.610948905109489,                      !- Value Until Time 1
  2,                                      !- Hour 2
  0,                                      !- Minute 2
  0.595675182481752,                      !- Value Until Time 2
  3,                                      !- Hour 3
  0,                                      !- Minute 3
  0.580401459854014,                      !- Value Until Time 3
  4,                                      !- Hour 4
  0,                                      !- Minute 4
  0.565127737226277,                      !- Value Until Time 4
  5,                                      !- Hour 5
  0,                                      !- Minute 5
  0.54985401459854,                       !- Value Until Time 5
  6,                                      !- Hour 6
  0,                                      !- Minute 6
  0.54985401459854,                       !- Value Until Time 6
  7,                                      !- Hour 7
  0,                                      !- Minute 7
  0.580401459854014,                      !- Value Until Time 7
  8,                                      !- Hour 8
  0,                                      !- Minute 8
  0.610948905109489,                      !- Value Until Time 8
  9,                                      !- Hour 9
  0,                                      !- Minute 9
  0.626222627737226,                      !- Value Until Time 9
  10,                                     !- Hour 10
  0,                                      !- Minute 10
  0.626222627737226,                      !- Value Until Time 10
  11,                                     !- Hour 11
  0,                                      !- Minute 11
  0.610948905109489,                      !- Value Until Time 11
  12,                                     !- Hour 12
  0,                                      !- Minute 12
  0.610948905109489,                      !- Value Until Time 12
  13,                                     !- Hour 13
  0,                                      !- Minute 13
  0.641496350364963,                      !- Value Until Time 13
  14,                                     !- Hour 14
  0,                                      !- Minute 14
  0.641496350364963,                      !- Value Until Time 14
  15,                                     !- Hour 15
  0,                                      !- Minute 15
  0.641496350364963,                      !- Value Until Time 15
  16,                                     !- Hour 16
  0,                                      !- Minute 16
  0.626222627737226,                      !- Value Until Time 16
  17,                                     !- Hour 17
  0,                                      !- Minute 17
  0.672043795620438,                      !- Value Until Time 17
  18,                                     !- Hour 18
  0,                                      !- Minute 18
  0.733138686131387,                      !- Value Until Time 18
  19,                                     !- Hour 19
  0,                                      !- Minute 19
  0.763686131386861,                      !- Value Until Time 19
  20,                                     !- Hour 20
  0,                                      !- Minute 20
  0.733138686131387,                      !- Value Until Time 20
  21,                                     !- Hour 21
  0,                                      !- Minute 21
  0.717864963503649,                      !- Value Until Time 21
  22,                                     !- Hour 22
  0,                                      !- Minute 22
  0.702591240875912,                      !- Value Until Time 22
  23,                                     !- Hour 23
  0,                                      !- Minute 23
  0.672043795620438,                      !- Value Until Time 23
  24,                                     !- Hour 24
  0,                                      !- Minute 24
  0.626222627737226;                      !- Value Until Time 24

OS:Schedule:Rule,
  {bab8d881-ca4c-45cc-aeb2-5fda1224de6a}, !- Handle
  fridge_weekday_ruleset2,                !- Name
  {be929cd9-419d-4d89-b756-d59a09943422}, !- Schedule Ruleset Name
  21,                                     !- Rule Order
  {0f9a7f6b-4436-4f23-bf0c-2f23984704ff}, !- Day Schedule Name
  No,                                     !- Apply Sunday
  Yes,                                    !- Apply Monday
  Yes,                                    !- Apply Tuesday
  Yes,                                    !- Apply Wednesday
  Yes,                                    !- Apply Thursday
  Yes,                                    !- Apply Friday
  No,                                     !- Apply Saturday
  ,                                       !- Apply Holiday
  DateRange,                              !- Date Specification Type
  2,                                      !- Start Month
  1,                                      !- Start Day
  2,                                      !- End Month
  28;                                     !- End Day

OS:Schedule:Day,
  {0f9a7f6b-4436-4f23-bf0c-2f23984704ff}, !- Handle
  RefrigeratorWeekday2,                   !- Name
  ,                                       !- Schedule Type Limits Name
  ,                                       !- Interpolate to Timestep
  1,                                      !- Hour 1
  0,                                      !- Minute 1
  0.60948905109489,                       !- Value Until Time 1
  2,                                      !- Hour 2
  0,                                      !- Minute 2
  0.594251824817518,                      !- Value Until Time 2
  3,                                      !- Hour 3
  0,                                      !- Minute 3
  0.579014598540146,                      !- Value Until Time 3
  4,                                      !- Hour 4
  0,                                      !- Minute 4
  0.563777372262774,                      !- Value Until Time 4
  5,                                      !- Hour 5
  0,                                      !- Minute 5
  0.548540145985401,                      !- Value Until Time 5
  6,                                      !- Hour 6
  0,                                      !- Minute 6
  0.548540145985401,                      !- Value Until Time 6
  7,                                      !- Hour 7
  0,                                      !- Minute 7
  0.579014598540146,                      !- Value Until Time 7
  8,                                      !- Hour 8
  0,                                      !- Minute 8
  0.60948905109489,                       !- Value Until Time 8
  9,                                      !- Hour 9
  0,                                      !- Minute 9
  0.624726277372263,                      !- Value Until Time 9
  10,                                     !- Hour 10
  0,                                      !- Minute 10
  0.624726277372263,                      !- Value Until Time 10
  11,                                     !- Hour 11
  0,                                      !- Minute 11
  0.60948905109489,                       !- Value Until Time 11
  12,                                     !- Hour 12
  0,                                      !- Minute 12
  0.60948905109489,                       !- Value Until Time 12
  13,                                     !- Hour 13
  0,                                      !- Minute 13
  0.639963503649635,                      !- Value Until Time 13
  14,                                     !- Hour 14
  0,                                      !- Minute 14
  0.639963503649635,                      !- Value Until Time 14
  15,                                     !- Hour 15
  0,                                      !- Minute 15
  0.639963503649635,                      !- Value Until Time 15
  16,                                     !- Hour 16
  0,                                      !- Minute 16
  0.624726277372263,                      !- Value Until Time 16
  17,                                     !- Hour 17
  0,                                      !- Minute 17
  0.670437956204379,                      !- Value Until Time 17
  18,                                     !- Hour 18
  0,                                      !- Minute 18
  0.731386861313868,                      !- Value Until Time 18
  19,                                     !- Hour 19
  0,                                      !- Minute 19
  0.761861313868613,                      !- Value Until Time 19
  20,                                     !- Hour 20
  0,                                      !- Minute 20
  0.731386861313868,                      !- Value Until Time 20
  21,                                     !- Hour 21
  0,                                      !- Minute 21
  0.716149635036496,                      !- Value Until Time 21
  22,                                     !- Hour 22
  0,                                      !- Minute 22
  0.700912408759124,                      !- Value Until Time 22
  23,                                     !- Hour 23
  0,                                      !- Minute 23
  0.670437956204379,                      !- Value Until Time 23
  24,                                     !- Hour 24
  0,                                      !- Minute 24
  0.624726277372263;                      !- Value Until Time 24

OS:Schedule:Rule,
  {f07c1ed8-3e3e-483d-8736-b92990f7b485}, !- Handle
  fridge_weekend_ruleset2,                !- Name
  {be929cd9-419d-4d89-b756-d59a09943422}, !- Schedule Ruleset Name
  20,                                     !- Rule Order
  {44f6b16f-5da7-4a7a-8416-64cd7d4eea59}, !- Day Schedule Name
  Yes,                                    !- Apply Sunday
  No,                                     !- Apply Monday
  No,                                     !- Apply Tuesday
  No,                                     !- Apply Wednesday
  No,                                     !- Apply Thursday
  No,                                     !- Apply Friday
  Yes,                                    !- Apply Saturday
  ,                                       !- Apply Holiday
  DateRange,                              !- Date Specification Type
  2,                                      !- Start Month
  1,                                      !- Start Day
  2,                                      !- End Month
  28;                                     !- End Day

OS:Schedule:Day,
  {44f6b16f-5da7-4a7a-8416-64cd7d4eea59}, !- Handle
  RefrigeratorWeekend2,                   !- Name
  ,                                       !- Schedule Type Limits Name
  ,                                       !- Interpolate to Timestep
  1,                                      !- Hour 1
  0,                                      !- Minute 1
  0.60948905109489,                       !- Value Until Time 1
  2,                                      !- Hour 2
  0,                                      !- Minute 2
  0.594251824817518,                      !- Value Until Time 2
  3,                                      !- Hour 3
  0,                                      !- Minute 3
  0.579014598540146,                      !- Value Until Time 3
  4,                                      !- Hour 4
  0,                                      !- Minute 4
  0.563777372262774,                      !- Value Until Time 4
  5,                                      !- Hour 5
  0,                                      !- Minute 5
  0.548540145985401,                      !- Value Until Time 5
  6,                                      !- Hour 6
  0,                                      !- Minute 6
  0.548540145985401,                      !- Value Until Time 6
  7,                                      !- Hour 7
  0,                                      !- Minute 7
  0.579014598540146,                      !- Value Until Time 7
  8,                                      !- Hour 8
  0,                                      !- Minute 8
  0.60948905109489,                       !- Value Until Time 8
  9,                                      !- Hour 9
  0,                                      !- Minute 9
  0.624726277372263,                      !- Value Until Time 9
  10,                                     !- Hour 10
  0,                                      !- Minute 10
  0.624726277372263,                      !- Value Until Time 10
  11,                                     !- Hour 11
  0,                                      !- Minute 11
  0.60948905109489,                       !- Value Until Time 11
  12,                                     !- Hour 12
  0,                                      !- Minute 12
  0.60948905109489,                       !- Value Until Time 12
  13,                                     !- Hour 13
  0,                                      !- Minute 13
  0.639963503649635,                      !- Value Until Time 13
  14,                                     !- Hour 14
  0,                                      !- Minute 14
  0.639963503649635,                      !- Value Until Time 14
  15,                                     !- Hour 15
  0,                                      !- Minute 15
  0.639963503649635,                      !- Value Until Time 15
  16,                                     !- Hour 16
  0,                                      !- Minute 16
  0.624726277372263,                      !- Value Until Time 16
  17,                                     !- Hour 17
  0,                                      !- Minute 17
  0.670437956204379,                      !- Value Until Time 17
  18,                                     !- Hour 18
  0,                                      !- Minute 18
  0.731386861313868,                      !- Value Until Time 18
  19,                                     !- Hour 19
  0,                                      !- Minute 19
  0.761861313868613,                      !- Value Until Time 19
  20,                                     !- Hour 20
  0,                                      !- Minute 20
  0.731386861313868,                      !- Value Until Time 20
  21,                                     !- Hour 21
  0,                                      !- Minute 21
  0.716149635036496,                      !- Value Until Time 21
  22,                                     !- Hour 22
  0,                                      !- Minute 22
  0.700912408759124,                      !- Value Until Time 22
  23,                                     !- Hour 23
  0,                                      !- Minute 23
  0.670437956204379,                      !- Value Until Time 23
  24,                                     !- Hour 24
  0,                                      !- Minute 24
  0.624726277372263;                      !- Value Until Time 24

OS:Schedule:Rule,
  {2af433a7-b453-4126-87b9-7dde44107bd3}, !- Handle
  fridge_weekday_ruleset3,                !- Name
  {be929cd9-419d-4d89-b756-d59a09943422}, !- Schedule Ruleset Name
  19,                                     !- Rule Order
  {ccd1fa88-4e24-43a3-ac1c-224bfab23552}, !- Day Schedule Name
  No,                                     !- Apply Sunday
  Yes,                                    !- Apply Monday
  Yes,                                    !- Apply Tuesday
  Yes,                                    !- Apply Wednesday
  Yes,                                    !- Apply Thursday
  Yes,                                    !- Apply Friday
  No,                                     !- Apply Saturday
  ,                                       !- Apply Holiday
  DateRange,                              !- Date Specification Type
  3,                                      !- Start Month
  1,                                      !- Start Day
  3,                                      !- End Month
  31;                                     !- End Day

OS:Schedule:Day,
  {ccd1fa88-4e24-43a3-ac1c-224bfab23552}, !- Handle
  RefrigeratorWeekday3,                   !- Name
  ,                                       !- Schedule Type Limits Name
  ,                                       !- Interpolate to Timestep
  1,                                      !- Hour 1
  0,                                      !- Minute 1
  0.791240875912409,                      !- Value Until Time 1
  2,                                      !- Hour 2
  0,                                      !- Minute 2
  0.771459854014598,                      !- Value Until Time 2
  3,                                      !- Hour 3
  0,                                      !- Minute 3
  0.751678832116788,                      !- Value Until Time 3
  4,                                      !- Hour 4
  0,                                      !- Minute 4
  0.731897810218978,                      !- Value Until Time 4
  5,                                      !- Hour 5
  0,                                      !- Minute 5
  0.712116788321168,                      !- Value Until Time 5
  6,                                      !- Hour 6
  0,                                      !- Minute 6
  0.712116788321168,                      !- Value Until Time 6
  7,                                      !- Hour 7
  0,                                      !- Minute 7
  0.751678832116788,                      !- Value Until Time 7
  8,                                      !- Hour 8
  0,                                      !- Minute 8
  0.791240875912409,                      !- Value Until Time 8
  9,                                      !- Hour 9
  0,                                      !- Minute 9
  0.811021897810219,                      !- Value Until Time 9
  10,                                     !- Hour 10
  0,                                      !- Minute 10
  0.811021897810219,                      !- Value Until Time 10
  11,                                     !- Hour 11
  0,                                      !- Minute 11
  0.791240875912409,                      !- Value Until Time 11
  12,                                     !- Hour 12
  0,                                      !- Minute 12
  0.791240875912409,                      !- Value Until Time 12
  13,                                     !- Hour 13
  0,                                      !- Minute 13
  0.830802919708029,                      !- Value Until Time 13
  14,                                     !- Hour 14
  0,                                      !- Minute 14
  0.830802919708029,                      !- Value Until Time 14
  15,                                     !- Hour 15
  0,                                      !- Minute 15
  0.830802919708029,                      !- Value Until Time 15
  16,                                     !- Hour 16
  0,                                      !- Minute 16
  0.811021897810219,                      !- Value Until Time 16
  17,                                     !- Hour 17
  0,                                      !- Minute 17
  0.87036496350365,                       !- Value Until Time 17
  18,                                     !- Hour 18
  0,                                      !- Minute 18
  0.94948905109489,                       !- Value Until Time 18
  19,                                     !- Hour 19
  0,                                      !- Minute 19
  0.989051094890511,                      !- Value Until Time 19
  20,                                     !- Hour 20
  0,                                      !- Minute 20
  0.94948905109489,                       !- Value Until Time 20
  21,                                     !- Hour 21
  0,                                      !- Minute 21
  0.92970802919708,                       !- Value Until Time 21
  22,                                     !- Hour 22
  0,                                      !- Minute 22
  0.90992700729927,                       !- Value Until Time 22
  23,                                     !- Hour 23
  0,                                      !- Minute 23
  0.87036496350365,                       !- Value Until Time 23
  24,                                     !- Hour 24
  0,                                      !- Minute 24
  0.811021897810219;                      !- Value Until Time 24

OS:Schedule:Rule,
  {f1eb25dd-78e7-4466-a8f3-678dc1f6a2ea}, !- Handle
  fridge_weekend_ruleset3,                !- Name
  {be929cd9-419d-4d89-b756-d59a09943422}, !- Schedule Ruleset Name
  18,                                     !- Rule Order
  {57ac027f-a21d-404c-8279-71a15582c92d}, !- Day Schedule Name
  Yes,                                    !- Apply Sunday
  No,                                     !- Apply Monday
  No,                                     !- Apply Tuesday
  No,                                     !- Apply Wednesday
  No,                                     !- Apply Thursday
  No,                                     !- Apply Friday
  Yes,                                    !- Apply Saturday
  ,                                       !- Apply Holiday
  DateRange,                              !- Date Specification Type
  3,                                      !- Start Month
  1,                                      !- Start Day
  3,                                      !- End Month
  31;                                     !- End Day

OS:Schedule:Day,
  {57ac027f-a21d-404c-8279-71a15582c92d}, !- Handle