
OS:Version,
  {15e12d2f-1e43-4872-88da-cac928508491}, !- Handle
  1.3.1;                                  !- Version Identifier

OS:Construction,
  {c4783788-7257-447a-aa0b-3cd10f014e5d}, !- Handle
  Slab,                                   !- Name
  ,                                       !- Surface Rendering Name
  {ef8fd697-e931-4d52-8e20-cd11753c0642}, !- Layer 1
  {90f8d18a-5ea9-420b-8394-74a809cf7793}, !- Layer 2
  {4898ccb3-728a-4a20-9518-cb77f0712d72}, !- Layer 3
  {f975c92a-f180-4d2b-ba7f-2a29c84bcb7a}; !- Layer 4

OS:Material,
  {90f8d18a-5ea9-420b-8394-74a809cf7793}, !- Handle
  Soil_12in,                              !- Name
  Rough,                                  !- Roughness
  0.3048,                                 !- Thickness {m}
  1.731,                                  !- Conductivity {W/m-K}
  1842.3,                                 !- Density {kg/m3}
  418.7;                                  !- Specific Heat {J/kg-K}

OS:Material,
  {4898ccb3-728a-4a20-9518-cb77f0712d72}, !- Handle
  SlabMass,                               !- Name
  Rough,                                  !- Roughness
  0.1016,                                 !- Thickness {m}
  1.312675,                               !- Conductivity {W/m-K}
  2242.79999999999,                       !- Density {kg/m3}
  837.4;                                  !- Specific Heat {J/kg-K}

OS:Material,
  {f975c92a-f180-4d2b-ba7f-2a29c84bcb7a}, !- Handle
  SlabCarpetBareEquivalentMaterial,       !- Name
  Rough,                                  !- Roughness
  0.0254,                                 !- Thickness {m}
  0.0866804263311929,                     !- Conductivity {W/m-K}
  40.05,                                  !- Density {kg/m3}
  1214.23;                                !- Specific Heat {J/kg-K}

OS:Material,
  {ef8fd697-e931-4d52-8e20-cd11753c0642}, !- Handle
  Mat-Fic-Slab,                           !- Name
  Rough,                                  !- Roughness
  0.0254,                                 !- Thickness {m}
  0.0062352870488968,                     !- Conductivity {W/m-K}
  40.05,                                  !- Density {kg/m3}
  1214.23;                                !- Specific Heat {J/kg-K}

