
OS:Version,
  {19d2589d-6c96-4603-9e3b-bb6cdde206bf}, !- Handle
  1.13.0;                                 !- Version Identifier

OS:Building,
  {bf305633-c5a1-4881-9edf-ca5e1a8e1274}, !- Handle
  Building,                               !- Name
  ,                                       !- Building Sector Type
  ,                                       !- North Axis {deg}
  ,                                       !- Nominal Floor to Floor Height {m}
  ,                                       !- Space Type Name
  ,                                       !- Default Construction Set Name
  ,                                       !- Default Schedule Set Name
  ,                                       !- Standards Number of Stories
  ,                                       !- Standards Number of Above Ground Stories
  ,                                       !- Standards Building Type
  1;                                      !- Standards Number of Living Units

OS:SimulationControl,
  {2c487a4c-bac9-4ac5-b669-1e49d9da7c2b}, !- Handle
  ,                                       !- Do Zone Sizing Calculation
  ,                                       !- Do System Sizing Calculation
  ,                                       !- Do Plant Sizing Calculation
  No,                                     !- Run Simulation for Sizing Periods
  ;                                       !- Run Simulation for Weather File Run Periods

OS:Timestep,
  {4ebc9f1e-4707-402e-9844-67eb1ffbd522}, !- Handle
  6;                                      !- Number of Timesteps per Hour

OS:RunPeriod,
  {28df894d-6af9-4fb8-8f56-df1753344aa3}, !- Handle
  Run Period,                             !- Name
  1,                                      !- Begin Month
  1,                                      !- Begin Day of Month
  12,                                     !- End Month
  31,                                     !- End Day of Month
  ,                                       !- Use Weather File Holidays and Special Days
  ,                                       !- Use Weather File Daylight Saving Period
  ,                                       !- Apply Weekend Holiday Rule
  ,                                       !- Use Weather File Rain Indicators
  ,                                       !- Use Weather File Snow Indicators
  ;                                       !- Number of Times Runperiod to be Repeated

OS:Sizing:Parameters,
  {dde5af6f-7923-4600-a28a-7556673a0266}, !- Handle
  1.0,                                    !- Heating Sizing Factor
  1.0;                                    !- Cooling Sizing Factor

OS:ShadowCalculation,
  {ca758bea-4416-4626-9bba-3d8795c79bd6}, !- Handle
  20,                                     !- Calculation Frequency
  200;                                    !- Maximum Figures in Shadow Overlap Calculations

OS:SurfaceConvectionAlgorithm:Inside,
  {aaabfc36-718a-4ab0-b622-f186ebb45230}, !- Handle
  TARP;                                   !- Algorithm

OS:SurfaceConvectionAlgorithm:Outside,
  {9a0a9f6f-4bbd-4b12-a121-9492a1fcd7d6}, !- Handle
  DOE-2;                                  !- Algorithm

OS:HeatBalanceAlgorithm,
  {9d93e563-e1e0-46d7-9e39-d1c8aceb7212}, !- Handle
  ConductionTransferFunction,             !- Algorithm
  200;                                    !- Surface Temperature Upper Limit {C}

OS:ZoneCapacitanceMultiplier:ResearchSpecial,
  {6bfced16-b16f-47f6-8223-f7e267d75d19}, !- Handle
  ,                                       !- Temperature Capacity Multiplier
  15,                                     !- Humidity Capacity Multiplier
  ;                                       !- Carbon Dioxide Capacity Multiplier

OS:ThermalZone,
  {501a2426-0361-4f35-a53c-53ae56789415}, !- Handle
  living zone,                            !- Name
  ,                                       !- Multiplier
  ,                                       !- Ceiling Height {m}
  ,                                       !- Volume {m3}
  ,                                       !- Floor Area {m2}
  ,                                       !- Zone Inside Convection Algorithm
  ,                                       !- Zone Outside Convection Algorithm
  ,                                       !- Zone Conditioning Equipment List Name
  {6704cf76-d146-4b51-8790-6809bb298459}, !- Zone Air Inlet Port List
  {959b3996-db51-4356-9aa2-0c5f5834ba67}, !- Zone Air Exhaust Port List
  {b4e5ff83-c07d-476f-a7d2-bf16fc541ac5}, !- Zone Air Node Name
  ,                                       !- Zone Return Air Node Name
  ,                                       !- Primary Daylighting Control Name
  ,                                       !- Fraction of Zone Controlled by Primary Daylighting Control
  ,                                       !- Secondary Daylighting Control Name
  ,                                       !- Fraction of Zone Controlled by Secondary Daylighting Control
  ,                                       !- Illuminance Map Name
  ,                                       !- Group Rendering Name
  ,                                       !- Thermostat Name
  No;                                     !- Use Ideal Air Loads

OS:Node,
  {4e065d24-95e3-4574-87f3-e9100d1bf063}, !- Handle
  Node 1,                                 !- Name
  {b4e5ff83-c07d-476f-a7d2-bf16fc541ac5}, !- Inlet Port
  ;                                       !- Outlet Port

OS:Connection,
  {b4e5ff83-c07d-476f-a7d2-bf16fc541ac5}, !- Handle
  {67a8ed84-ade5-4105-bfaa-4ae60884a7ce}, !- Name
  {501a2426-0361-4f35-a53c-53ae56789415}, !- Source Object
  11,                                     !- Outlet Port
  {4e065d24-95e3-4574-87f3-e9100d1bf063}, !- Target Object
  2;                                      !- Inlet Port

OS:PortList,
  {6704cf76-d146-4b51-8790-6809bb298459}, !- Handle
  Port List 1,                            !- Name
  {501a2426-0361-4f35-a53c-53ae56789415}; !- HVAC Component

OS:PortList,
  {959b3996-db51-4356-9aa2-0c5f5834ba67}, !- Handle
  Port List 2,                            !- Name
  {501a2426-0361-4f35-a53c-53ae56789415}; !- HVAC Component

OS:Sizing:Zone,
  {8c73c104-56a6-42fa-af54-194c6f705fd6}, !- Handle
  {501a2426-0361-4f35-a53c-53ae56789415}, !- Zone or ZoneList Name
  SupplyAirTemperature,                   !- Zone Cooling Design Supply Air Temperature Input Method
  14,                                     !- Zone Cooling Design Supply Air Temperature {C}
  11.11,                                  !- Zone Cooling Design Supply Air Temperature Difference {deltaC}
  SupplyAirTemperature,                   !- Zone Heating Design Supply Air Temperature Input Method
  40,                                     !- Zone Heating Design Supply Air Temperature {C}
  11.11,                                  !- Zone Heating Design Supply Air Temperature Difference {deltaC}
  0.0085,                                 !- Zone Cooling Design Supply Air Humidity Ratio {kg-H2O/kg-air}
  0.008,                                  !- Zone Heating Design Supply Air Humidity Ratio {kg-H2O/kg-air}
  ,                                       !- Zone Heating Sizing Factor
  ,                                       !- Zone Cooling Sizing Factor
  DesignDay,                              !- Cooling Design Air Flow Method
  ,                                       !- Cooling Design Air Flow Rate {m3/s}
  ,                                       !- Cooling Minimum Air Flow per Zone Floor Area {m3/s-m2}
  ,                                       !- Cooling Minimum Air Flow {m3/s}
  ,                                       !- Cooling Minimum Air Flow Fraction
  DesignDay,                              !- Heating Design Air Flow Method
  ,                                       !- Heating Design Air Flow Rate {m3/s}
  ,                                       !- Heating Maximum Air Flow per Zone Floor Area {m3/s-m2}
  ,                                       !- Heating Maximum Air Flow {m3/s}
  ,                                       !- Heating Maximum Air Flow Fraction
  ,                                       !- Design Zone Air Distribution Effectiveness in Cooling Mode
  ,                                       !- Design Zone Air Distribution Effectiveness in Heating Mode
  No,                                     !- Account for Dedicated Outdoor Air System
  NeutralSupplyAir,                       !- Dedicated Outdoor Air System Control Strategy
  autosize,                               !- Dedicated Outdoor Air Low Setpoint Temperature for Design {C}
  autosize;                               !- Dedicated Outdoor Air High Setpoint Temperature for Design {C}

OS:ZoneHVAC:EquipmentList,
  {9f2aa65e-5d3b-4c27-acc4-fef343a2a9ce}, !- Handle
  Zone HVAC Equipment List 1,             !- Name
  {501a2426-0361-4f35-a53c-53ae56789415}; !- Thermal Zone

OS:Space,
  {295bd546-b791-477f-91eb-476a18296e84}, !- Handle
  living space,                           !- Name
  ,                                       !- Space Type Name
  ,                                       !- Default Construction Set Name
  ,                                       !- Default Schedule Set Name
  -0,                                     !- Direction of Relative North {deg}
  0,                                      !- X Origin {m}
  0,                                      !- Y Origin {m}
  0,                                      !- Z Origin {m}
  ,                                       !- Building Story Name
  {501a2426-0361-4f35-a53c-53ae56789415}; !- Thermal Zone Name

OS:Surface,
  {008ccd6a-e81d-42bf-bc0f-c1d7cebae75f}, !- Handle
  Surface 1,                              !- Name
  Floor,                                  !- Surface Type
  ,                                       !- Construction Name
  {295bd546-b791-477f-91eb-476a18296e84}, !- Space Name
  Ground,                                 !- Outside Boundary Condition
  ,                                       !- Outside Boundary Condition Object
  NoSun,                                  !- Sun Exposure
  NoWind,                                 !- Wind Exposure
  ,                                       !- View Factor to Ground
  ,                                       !- Number of Vertices
  0, 0, 0,                                !- X,Y,Z Vertex 1 {m}
  0, 6.81553519541936, 0,                 !- X,Y,Z Vertex 2 {m}
  13.6310703908387, 6.81553519541936, 0,  !- X,Y,Z Vertex 3 {m}
  13.6310703908387, 0, 0;                 !- X,Y,Z Vertex 4 {m}

OS:Surface,
  {0277abe0-4260-41ae-8f12-b781da8d3d01}, !- Handle
  Surface 2,                              !- Name
  Wall,                                   !- Surface Type
  {0424bf00-c36d-457b-9a45-45f7f2f05256}, !- Construction Name
  {295bd546-b791-477f-91eb-476a18296e84}, !- Space Name
  Outdoors,                               !- Outside Boundary Condition
  ,                                       !- Outside Boundary Condition Object
  SunExposed,                             !- Sun Exposure
  WindExposed,                            !- Wind Exposure
  ,                                       !- View Factor to Ground
  ,                                       !- Number of Vertices
  0, 6.81553519541936, 2.4384,            !- X,Y,Z Vertex 1 {m}
  0, 6.81553519541936, 0,                 !- X,Y,Z Vertex 2 {m}
  0, 0, 0,                                !- X,Y,Z Vertex 3 {m}
  0, 0, 2.4384;                           !- X,Y,Z Vertex 4 {m}

OS:Surface,
  {328c9698-2fb7-4f95-a617-503606245bae}, !- Handle
  Surface 3,                              !- Name
  Wall,                                   !- Surface Type
  {0424bf00-c36d-457b-9a45-45f7f2f05256}, !- Construction Name
  {295bd546-b791-477f-91eb-476a18296e84}, !- Space Name
  Outdoors,                               !- Outside Boundary Condition
  ,                                       !- Outside Boundary Condition Object
  SunExposed,                             !- Sun Exposure
  WindExposed,                            !- Wind Exposure
  ,                                       !- View Factor to Ground
  ,                                       !- Number of Vertices
  13.6310703908387, 6.81553519541936, 2.4384, !- X,Y,Z Vertex 1 {m}
  13.6310703908387, 6.81553519541936, 0,  !- X,Y,Z Vertex 2 {m}
  0, 6.81553519541936, 0,                 !- X,Y,Z Vertex 3 {m}
  0, 6.81553519541936, 2.4384;            !- X,Y,Z Vertex 4 {m}

OS:Surface,
  {dc30b34f-2f1f-4434-bc35-a6119791c93d}, !- Handle
  Surface 4,                              !- Name
  Wall,                                   !- Surface Type
  {0424bf00-c36d-457b-9a45-45f7f2f05256}, !- Construction Name
  {295bd546-b791-477f-91eb-476a18296e84}, !- Space Name
  Outdoors,                               !- Outside Boundary Condition
  ,                                       !- Outside Boundary Condition Object
  SunExposed,                             !- Sun Exposure
  WindExposed,                            !- Wind Exposure
  ,                                       !- View Factor to Ground
  ,                                       !- Number of Vertices
  13.6310703908387, 0, 2.4384,            !- X,Y,Z Vertex 1 {m}
  13.6310703908387, 0, 0,                 !- X,Y,Z Vertex 2 {m}
  13.6310703908387, 6.81553519541936, 0,  !- X,Y,Z Vertex 3 {m}
  13.6310703908387, 6.81553519541936, 2.4384; !- X,Y,Z Vertex 4 {m}

OS:Surface,
  {7b06e568-7052-48e6-b191-9cb25710f3d1}, !- Handle
  Surface 5,                              !- Name
  Wall,                                   !- Surface Type
  {0424bf00-c36d-457b-9a45-45f7f2f05256}, !- Construction Name
  {295bd546-b791-477f-91eb-476a18296e84}, !- Space Name
  Outdoors,                               !- Outside Boundary Condition
  ,                                       !- Outside Boundary Condition Object
  SunExposed,                             !- Sun Exposure
  WindExposed,                            !- Wind Exposure
  ,                                       !- View Factor to Ground
  ,                                       !- Number of Vertices
  0, 0, 2.4384,                           !- X,Y,Z Vertex 1 {m}
  0, 0, 0,                                !- X,Y,Z Vertex 2 {m}
  13.6310703908387, 0, 0,                 !- X,Y,Z Vertex 3 {m}
  13.6310703908387, 0, 2.4384;            !- X,Y,Z Vertex 4 {m}

OS:Surface,
  {ef793225-27c4-4754-9fe2-38d9583ffe27}, !- Handle
  Surface 6,                              !- Name
  RoofCeiling,                            !- Surface Type
  {30f59d30-a821-4758-8c89-9902b022e6d8}, !- Construction Name
  {295bd546-b791-477f-91eb-476a18296e84}, !- Space Name
  Surface,                                !- Outside Boundary Condition
  {730a0309-82b4-409c-ade8-1fc1d08b8b5d}, !- Outside Boundary Condition Object
  NoSun,                                  !- Sun Exposure
  NoWind,                                 !- Wind Exposure
  ,                                       !- View Factor to Ground
  ,                                       !- Number of Vertices
  13.6310703908387, 0, 2.4384,            !- X,Y,Z Vertex 1 {m}
  13.6310703908387, 6.81553519541936, 2.4384, !- X,Y,Z Vertex 2 {m}
  0, 6.81553519541936, 2.4384,            !- X,Y,Z Vertex 3 {m}
  0, 0, 2.4384;                           !- X,Y,Z Vertex 4 {m}

OS:Space,
  {6a67dc09-7ec6-450c-bc0e-6bb8159d0a34}, !- Handle
  living space|story 2,                   !- Name
  ,                                       !- Space Type Name
  ,                                       !- Default Construction Set Name
  ,                                       !- Default Schedule Set Name
  -0,                                     !- Direction of Relative North {deg}
  0,                                      !- X Origin {m}
  0,                                      !- Y Origin {m}
  2.4384,                                 !- Z Origin {m}
  ,                                       !- Building Story Name
  {501a2426-0361-4f35-a53c-53ae56789415}; !- Thermal Zone Name

OS:Surface,
  {730a0309-82b4-409c-ade8-1fc1d08b8b5d}, !- Handle
  Surface 7,                              !- Name
  Floor,                                  !- Surface Type
  {30f59d30-a821-4758-8c89-9902b022e6d8}, !- Construction Name
  {6a67dc09-7ec6-450c-bc0e-6bb8159d0a34}, !- Space Name
  Surface,                                !- Outside Boundary Condition
  {ef793225-27c4-4754-9fe2-38d9583ffe27}, !- Outside Boundary Condition Object
  NoSun,                                  !- Sun Exposure
  NoWind,                                 !- Wind Exposure
  ,                                       !- View Factor to Ground
  ,                                       !- Number of Vertices
  0, 0, 0,                                !- X,Y,Z Vertex 1 {m}
  0, 6.81553519541936, 0,                 !- X,Y,Z Vertex 2 {m}
  13.6310703908387, 6.81553519541936, 0,  !- X,Y,Z Vertex 3 {m}
  13.6310703908387, 0, 0;                 !- X,Y,Z Vertex 4 {m}

OS:Surface,
  {3dc9cace-c49a-4c99-af1f-aba1e1fd8316}, !- Handle
  Surface 8,                              !- Name
  Wall,                                   !- Surface Type
  {0424bf00-c36d-457b-9a45-45f7f2f05256}, !- Construction Name
  {6a67dc09-7ec6-450c-bc0e-6bb8159d0a34}, !- Space Name
  Outdoors,                               !- Outside Boundary Condition
  ,                                       !- Outside Boundary Condition Object
  SunExposed,                             !- Sun Exposure
  WindExposed,                            !- Wind Exposure
  ,                                       !- View Factor to Ground
  ,                                       !- Number of Vertices
  0, 6.81553519541936, 2.4384,            !- X,Y,Z Vertex 1 {m}
  0, 6.81553519541936, 0,                 !- X,Y,Z Vertex 2 {m}
  0, 0, 0,                                !- X,Y,Z Vertex 3 {m}
  0, 0, 2.4384;                           !- X,Y,Z Vertex 4 {m}

OS:Surface,
  {39cbbc40-815c-47c7-b0e8-5d614f1d9812}, !- Handle
  Surface 9,                              !- Name
  Wall,                                   !- Surface Type
  {0424bf00-c36d-457b-9a45-45f7f2f05256}, !- Construction Name
  {6a67dc09-7ec6-450c-bc0e-6bb8159d0a34}, !- Space Name
  Outdoors,                               !- Outside Boundary Condition
  ,                                       !- Outside Boundary Condition Object
  SunExposed,                             !- Sun Exposure
  WindExposed,                            !- Wind Exposure
  ,                                       !- View Factor to Ground
  ,                                       !- Number of Vertices
  13.6310703908387, 6.81553519541936, 2.4384, !- X,Y,Z Vertex 1 {m}
  13.6310703908387, 6.81553519541936, 0,  !- X,Y,Z Vertex 2 {m}
  0, 6.81553519541936, 0,                 !- X,Y,Z Vertex 3 {m}
  0, 6.81553519541936, 2.4384;            !- X,Y,Z Vertex 4 {m}

OS:Surface,
  {9ff7ab79-4e69-484c-87ca-cc65a0db66e9}, !- Handle
  Surface 10,                             !- Name
  Wall,                                   !- Surface Type
  {0424bf00-c36d-457b-9a45-45f7f2f05256}, !- Construction Name
  {6a67dc09-7ec6-450c-bc0e-6bb8159d0a34}, !- Space Name
  Outdoors,                               !- Outside Boundary Condition
  ,                                       !- Outside Boundary Condition Object
  SunExposed,                             !- Sun Exposure
  WindExposed,                            !- Wind Exposure
  ,                                       !- View Factor to Ground
  ,                                       !- Number of Vertices
  13.6310703908387, 0, 2.4384,            !- X,Y,Z Vertex 1 {m}
  13.6310703908387, 0, 0,                 !- X,Y,Z Vertex 2 {m}
  13.6310703908387, 6.81553519541936, 0,  !- X,Y,Z Vertex 3 {m}
  13.6310703908387, 6.81553519541936, 2.4384; !- X,Y,Z Vertex 4 {m}

OS:Surface,
  {92de1c1c-6379-4093-9b08-9df934337f89}, !- Handle
  Surface 11,                             !- Name
  Wall,                                   !- Surface Type
  {0424bf00-c36d-457b-9a45-45f7f2f05256}, !- Construction Name
  {6a67dc09-7ec6-450c-bc0e-6bb8159d0a34}, !- Space Name
  Outdoors,                               !- Outside Boundary Condition
  ,                                       !- Outside Boundary Condition Object
  SunExposed,                             !- Sun Exposure
  WindExposed,                            !- Wind Exposure
  ,                                       !- View Factor to Ground
  ,                                       !- Number of Vertices
  0, 0, 2.4384,                           !- X,Y,Z Vertex 1 {m}
  0, 0, 0,                                !- X,Y,Z Vertex 2 {m}
  13.6310703908387, 0, 0,                 !- X,Y,Z Vertex 3 {m}
  13.6310703908387, 0, 2.4384;            !- X,Y,Z Vertex 4 {m}

OS:Surface,
  {5ecbd6e6-146b-48cc-a2b8-a49bd792a8fc}, !- Handle
  Surface 12,                             !- Name
  RoofCeiling,                            !- Surface Type
  ,                                       !- Construction Name
  {6a67dc09-7ec6-450c-bc0e-6bb8159d0a34}, !- Space Name
  Surface,                                !- Outside Boundary Condition
  {3c0ae92e-b816-4f1b-99c8-7b93324ea09c}, !- Outside Boundary Condition Object
  NoSun,                                  !- Sun Exposure
  NoWind,                                 !- Wind Exposure
  ,                                       !- View Factor to Ground
  ,                                       !- Number of Vertices
  13.6310703908387, 0, 2.4384,            !- X,Y,Z Vertex 1 {m}
  13.6310703908387, 6.81553519541936, 2.4384, !- X,Y,Z Vertex 2 {m}
  0, 6.81553519541936, 2.4384,            !- X,Y,Z Vertex 3 {m}
  0, 0, 2.4384;                           !- X,Y,Z Vertex 4 {m}

OS:Surface,
  {3c0ae92e-b816-4f1b-99c8-7b93324ea09c}, !- Handle
  Surface 13,                             !- Name
  Floor,                                  !- Surface Type
  ,                                       !- Construction Name
  {30f57cb4-fd21-4157-9524-d45f8052ee8e}, !- Space Name
  Surface,                                !- Outside Boundary Condition
  {5ecbd6e6-146b-48cc-a2b8-a49bd792a8fc}, !- Outside Boundary Condition Object
  NoSun,                                  !- Sun Exposure
  NoWind,                                 !- Wind Exposure
  ,                                       !- View Factor to Ground
  ,                                       !- Number of Vertices
  0, 6.81553519541936, 0,                 !- X,Y,Z Vertex 1 {m}
  13.6310703908387, 6.81553519541936, 0,  !- X,Y,Z Vertex 2 {m}
  13.6310703908387, 0, 0,                 !- X,Y,Z Vertex 3 {m}
  0, 0, 0;                                !- X,Y,Z Vertex 4 {m}

OS:Surface,
  {4ef04228-9cf8-42b2-a07d-d647b843460e}, !- Handle
  Surface 14,                             !- Name
  RoofCeiling,                            !- Surface Type
  ,                                       !- Construction Name
  {30f57cb4-fd21-4157-9524-d45f8052ee8e}, !- Space Name
  Outdoors,                               !- Outside Boundary Condition
  ,                                       !- Outside Boundary Condition Object
  SunExposed,                             !- Sun Exposure
  WindExposed,                            !- Wind Exposure
  ,                                       !- View Factor to Ground
  ,                                       !- Number of Vertices
  13.6310703908387, 3.40776759770968, 1.70388379885484, !- X,Y,Z Vertex 1 {m}
  0, 3.40776759770968, 1.70388379885484,  !- X,Y,Z Vertex 2 {m}
  0, 0, 0,                                !- X,Y,Z Vertex 3 {m}
  13.6310703908387, 0, 0;                 !- X,Y,Z Vertex 4 {m}

OS:Surface,
  {60eb8397-4be6-4963-a4dc-7244359f10c8}, !- Handle
  Surface 15,                             !- Name
  RoofCeiling,                            !- Surface Type
  ,                                       !- Construction Name
  {30f57cb4-fd21-4157-9524-d45f8052ee8e}, !- Space Name
  Outdoors,                               !- Outside Boundary Condition
  ,                                       !- Outside Boundary Condition Object
  SunExposed,                             !- Sun Exposure
  WindExposed,                            !- Wind Exposure
  ,                                       !- View Factor to Ground
  ,                                       !- Number of Vertices
  0, 3.40776759770968, 1.70388379885484,  !- X,Y,Z Vertex 1 {m}
  13.6310703908387, 3.40776759770968, 1.70388379885484, !- X,Y,Z Vertex 2 {m}
  13.6310703908387, 6.81553519541936, 0,  !- X,Y,Z Vertex 3 {m}
  0, 6.81553519541936, 0;                 !- X,Y,Z Vertex 4 {m}

OS:Surface,
  {b5d6de68-14fb-42ab-8207-565b95303041}, !- Handle
  Surface 16,                             !- Name
  Wall,                                   !- Surface Type
  {9db490a9-bec5-4462-813a-12884d6c441a}, !- Construction Name
  {30f57cb4-fd21-4157-9524-d45f8052ee8e}, !- Space Name
  Outdoors,                               !- Outside Boundary Condition
  ,                                       !- Outside Boundary Condition Object
  SunExposed,                             !- Sun Exposure
  WindExposed,                            !- Wind Exposure
  ,                                       !- View Factor to Ground
  ,                                       !- Number of Vertices
  0, 3.40776759770968, 1.70388379885484,  !- X,Y,Z Vertex 1 {m}
  0, 6.81553519541936, 0,                 !- X,Y,Z Vertex 2 {m}
  0, 0, 0;                                !- X,Y,Z Vertex 3 {m}

OS:Surface,
  {39618e5b-4b98-47cb-a4e3-744bc6458164}, !- Handle
  Surface 17,                             !- Name
  Wall,                                   !- Surface Type
  {9db490a9-bec5-4462-813a-12884d6c441a}, !- Construction Name
  {30f57cb4-fd21-4157-9524-d45f8052ee8e}, !- Space Name
  Outdoors,                               !- Outside Boundary Condition
  ,                                       !- Outside Boundary Condition Object
  SunExposed,                             !- Sun Exposure
  WindExposed,                            !- Wind Exposure
  ,                                       !- View Factor to Ground
  ,                                       !- Number of Vertices
  13.6310703908387, 3.40776759770968, 1.70388379885484, !- X,Y,Z Vertex 1 {m}
  13.6310703908387, 0, 0,                 !- X,Y,Z Vertex 2 {m}
  13.6310703908387, 6.81553519541936, 0;  !- X,Y,Z Vertex 3 {m}

OS:Space,
  {30f57cb4-fd21-4157-9524-d45f8052ee8e}, !- Handle
  unfinished attic,                       !- Name
  ,                                       !- Space Type Name
  ,                                       !- Default Construction Set Name
  ,                                       !- Default Schedule Set Name
  -0,                                     !- Direction of Relative North {deg}
  0,                                      !- X Origin {m}
  0,                                      !- Y Origin {m}
  4.8768,                                 !- Z Origin {m}
  ,                                       !- Building Story Name
  {80de9bae-5552-4b51-9b0c-786acff5e667}; !- Thermal Zone Name

OS:ThermalZone,
  {80de9bae-5552-4b51-9b0c-786acff5e667}, !- Handle
  unfinished attic zone,                  !- Name
  ,                                       !- Multiplier
  ,                                       !- Ceiling Height {m}
  ,                                       !- Volume {m3}
  ,                                       !- Floor Area {m2}
  ,                                       !- Zone Inside Convection Algorithm
  ,                                       !- Zone Outside Convection Algorithm
  ,                                       !- Zone Conditioning Equipment List Name
  {348b4db0-7abd-45f3-9f6f-cf7f2615f35e}, !- Zone Air Inlet Port List
  {4196fc9f-72dd-44a3-a5c9-684cf7732008}, !- Zone Air Exhaust Port List
  {cfb80e82-a0da-4fc1-b15d-3104f590df95}, !- Zone Air Node Name
  ,                                       !- Zone Return Air Node Name
  ,                                       !- Primary Daylighting Control Name
  ,                                       !- Fraction of Zone Controlled by Primary Daylighting Control
  ,                                       !- Secondary Daylighting Control Name
  ,                                       !- Fraction of Zone Controlled by Secondary Daylighting Control
  ,                                       !- Illuminance Map Name
  ,                                       !- Group Rendering Name
  ,                                       !- Thermostat Name
  No;                                     !- Use Ideal Air Loads

OS:Node,
  {f14681e2-9681-46c6-95d1-f016a2a59843}, !- Handle
  Node 2,                                 !- Name
  {cfb80e82-a0da-4fc1-b15d-3104f590df95}, !- Inlet Port
  ;                                       !- Outlet Port

OS:Connection,
  {cfb80e82-a0da-4fc1-b15d-3104f590df95}, !- Handle
  {d3a24688-6118-499c-8e86-3fcbd44d3ae2}, !- Name
  {80de9bae-5552-4b51-9b0c-786acff5e667}, !- Source Object
  11,                                     !- Outlet Port
  {f14681e2-9681-46c6-95d1-f016a2a59843}, !- Target Object
  2;                                      !- Inlet Port

OS:PortList,
  {348b4db0-7abd-45f3-9f6f-cf7f2615f35e}, !- Handle
  Port List 3,                            !- Name
  {80de9bae-5552-4b51-9b0c-786acff5e667}; !- HVAC Component

OS:PortList,
  {4196fc9f-72dd-44a3-a5c9-684cf7732008}, !- Handle
  Port List 4,                            !- Name
  {80de9bae-5552-4b51-9b0c-786acff5e667}; !- HVAC Component

OS:Sizing:Zone,
  {18d0de4e-fa44-49ed-86d2-5ab0a43c6a26}, !- Handle
  {80de9bae-5552-4b51-9b0c-786acff5e667}, !- Zone or ZoneList Name
  SupplyAirTemperature,                   !- Zone Cooling Design Supply Air Temperature Input Method
  14,                                     !- Zone Cooling Design Supply Air Temperature {C}
  11.11,                                  !- Zone Cooling Design Supply Air Temperature Difference {deltaC}
  SupplyAirTemperature,                   !- Zone Heating Design Supply Air Temperature Input Method