
OS:Version,
  {208aa356-1589-4244-bd0f-be4496e7a038}, !- Handle
  1.3.1;                                  !- Version Identifier

OS:Construction,
  {2d072756-c6f5-44da-b2a2-8aa9645125aa}, !- Handle
  ExtInsFinWall,                          !- Name
  ,                                       !- Surface Rendering Name
  {34dc27fc-7bb2-4cbe-b2b7-54f6130f061c}, !- Layer 1
  {d53d484b-b542-4409-a04b-8403e131bb57}, !- Layer 2
  {ea4cf3a0-e139-4cb5-be39-4a13ba8b1652}, !- Layer 3
  {326f5cac-c129-4b7d-ad7c-5c1f247dc166}; !- Layer 4

OS:Material,
  {34dc27fc-7bb2-4cbe-b2b7-54f6130f061c}, !- Handle
  Exterior_Finish_Vinyl_Light,            !- Name
  Rough,                                  !- Roughness
  0.009525,                               !- Thickness {m}
  0.089435,                               !- Conductivity {W/m-K}
  177.822,                                !- Density {kg/m3}
  1046.75,                                !- Specific Heat {J/kg-K}
  0.9,                                    !- Thermal Absorptance
  0.3,                                    !- Solar Absorptance
  0.3;                                    !- Visible Absorptance

OS:Material,
  {d53d484b-b542-4409-a04b-8403e131bb57}, !- Handle
  Plywood_1_2in,                          !- Name
  Rough,                                  !- Roughness
  0.0127,                                 !- Thickness {m}
  0.1154577,                              !- Conductivity {W/m-K}
  512.64,                                 !- Density {kg/m3}
  1214.23;                                !- Specific Heat {J/kg-K}

OS:Material,
  {326f5cac-c129-4b7d-ad7c-5c1f247dc166}, !- Handle
  GypsumBoard_1_2in,                      !- Name
  Rough,                                  !- Roughness
  0.0127,                                 !- Thickness {m}
  0.1602906,                              !- Conductivity {W/m-K}
  801,                                    !- Density {kg/m3}
  837.4;                                  !- Specific Heat {J/kg-K}

OS:Material,
  {ea4cf3a0-e139-4cb5-be39-4a13ba8b1652}, !- Handle
  StudandCavity,                          !- Name
  Rough,                                  !- Roughness
  0.1397,                                 !- Thickness {m}
  0.0564161021529703,                     !- Conductivity {W/m-K}
  147.699589804884,                       !- Density {kg/m3}
  1174.62950532575;                       !- Specific Heat {J/kg-K}

