
OS:Version,
  {bebe781b-f2f4-48de-abdd-c90a3a848e0a}, !- Handle
  1.3.1;                                  !- Version Identifier

OS:Construction,
  {a255b614-9bbe-4b0e-87f8-04b73c2c4f07}, !- Handle
  ExtInsFinWall,                          !- Name
  ,                                       !- Surface Rendering Name
  {1c325a7b-b2f7-42c9-b56a-73403ba57a45}, !- Layer 1
  {5fe36ed7-d7cb-4d82-96d2-1ebcc731524c}, !- Layer 2
  {7d6c0d86-ef27-4ec7-88bc-f44a2172b39d}, !- Layer 3
  {bc36d120-4b66-4509-819c-d54f62a60a20}; !- Layer 4

OS:Material,
  {1c325a7b-b2f7-42c9-b56a-73403ba57a45}, !- Handle
  Exterior_Finish_Vinyl_Light,            !- Name
  Rough,                                  !- Roughness
  0.009525,                               !- Thickness {m}
  0.089435,                               !- Conductivity {W/m-K}
  177.822,                                !- Density {kg/m3}
  1046.75,                                !- Specific Heat {J/kg-K}
  0.9,                                    !- Thermal Absorptance
  0.3,                                    !- Solar Absorptance
  0.3;                                    !- Visible Absorptance

OS:Material,
  {5fe36ed7-d7cb-4d82-96d2-1ebcc731524c}, !- Handle
  Plywood_1_2in,                          !- Name
  Rough,                                  !- Roughness
  0.0127,                                 !- Thickness {m}
  0.1154577,                              !- Conductivity {W/m-K}
  512.64,                                 !- Density {kg/m3}
  1214.23;                                !- Specific Heat {J/kg-K}

OS:Material,
  {bc36d120-4b66-4509-819c-d54f62a60a20}, !- Handle
  GypsumBoard_1_2in,                      !- Name
  Rough,                                  !- Roughness
  0.0127,                                 !- Thickness {m}
  0.1602906,                              !- Conductivity {W/m-K}
  801,                                    !- Density {kg/m3}
  837.4;                                  !- Specific Heat {J/kg-K}

OS:Material,
  {7d6c0d86-ef27-4ec7-88bc-f44a2172b39d}, !- Handle
  StudandCavity,                          !- Name
  Rough,                                  !- Roughness
  0.0889,                                 !- Thickness {m}
  0.049818917563541,                      !- Conductivity {W/m-K}
  162.40275,                              !- Density {kg/m3}
  1178.91670776818;                       !- Specific Heat {J/kg-K}

