
OS:Version,
  {cd7f3c06-0f6f-4fd3-aff8-f3158ed7dcf2}, !- Handle
  1.3.1;                                  !- Version Identifier

OS:Construction,
  {55a441bb-1b20-4ca0-8c80-7fae1db8481e}, !- Handle
  ExtInsFinWall,                          !- Name
  ,                                       !- Surface Rendering Name
  {d2cc9ecf-3409-4dc7-91ae-50b261b1c5a6}, !- Layer 1
  {74345ee0-e53c-4cc0-84cb-adea6d3acab0}, !- Layer 2
  {601a7cc0-3bbe-4441-abf1-369f270e862f}, !- Layer 3
  {07278d28-86bd-4b11-9e85-676d1b0ae467}, !- Layer 4
  {ac851bbb-8fd2-4f1b-b2a0-e514cce16679}, !- Layer 5
  {b5884172-d38d-4273-b0e3-ded6efc99f80}; !- Layer 6

OS:Material,
  {d2cc9ecf-3409-4dc7-91ae-50b261b1c5a6}, !- Handle
  Exterior_Finish_Vinyl_Light,            !- Name
  Rough,                                  !- Roughness
  0.009525,                               !- Thickness {m}
  0.089435,                               !- Conductivity {W/m-K}
  177.822,                                !- Density {kg/m3}
  1046.75,                                !- Specific Heat {J/kg-K}
  0.9,                                    !- Thermal Absorptance
  0.3,                                    !- Solar Absorptance
  0.3;                                    !- Visible Absorptance

OS:Material,
  {b5884172-d38d-4273-b0e3-ded6efc99f80}, !- Handle
  GypsumBoard_1_2in,                      !- Name
  Rough,                                  !- Roughness
  0.0127,                                 !- Thickness {m}
  0.1602906,                              !- Conductivity {W/m-K}
  801,                                    !- Density {kg/m3}
  837.4;                                  !- Specific Heat {J/kg-K}

OS:Material,
  {74345ee0-e53c-4cc0-84cb-adea6d3acab0}, !- Handle
  SplineLayer,                            !- Name
  Rough,                                  !- Roughness
  0.0127,                                 !- Thickness {m}
  0.0304648617446528,                     !- Conductivity {W/m-K}
  147.0636,                               !- Density {kg/m3}
  1214.23;                                !- Specific Heat {J/kg-K}

OS:Material,
  {601a7cc0-3bbe-4441-abf1-369f270e862f}, !- Handle
  WallIns,                                !- Name
  Rough,                                  !- Roughness
  0.212725,                               !- Thickness {m}
  0.0420404143578947,                     !- Conductivity {W/m-K}
  107.0136,                               !- Density {kg/m3}
  1214.23;                                !- Specific Heat {J/kg-K}

OS:Material,
  {07278d28-86bd-4b11-9e85-676d1b0ae467}, !- Handle
  SplineLayer 1,                          !- Name
  Rough,                                  !- Roughness
  0.0127,                                 !- Thickness {m}
  0.0304648617446528,                     !- Conductivity {W/m-K}
  147.0636,                               !- Density {kg/m3}
  1214.23;                                !- Specific Heat {J/kg-K}

OS:Material,
  {ac851bbb-8fd2-4f1b-b2a0-e514cce16679}, !- Handle
  IntSheathing,                           !- Name
  Rough,                                  !- Roughness
  0.011176,                               !- Thickness {m}
  0.1154577,                              !- Conductivity {W/m-K}
  512.64,                                 !- Density {kg/m3}
  1214.23;                                !- Specific Heat {J/kg-K}

