
OS:Version,
  {b63200ac-917f-45c2-8370-7ea7dd94f085}, !- Handle
  1.3.1;                                  !- Version Identifier

OS:Construction,
  {242368e7-b38e-479f-8ca1-33964a447524}, !- Handle
  ExtInsFinWall,                          !- Name
  ,                                       !- Surface Rendering Name
  {04820d70-9bd4-4332-aa8d-017cf6dfaec4}, !- Layer 1
  {1b6c90eb-3ace-44d0-a186-ccb479a5946d}, !- Layer 2
  {a3ab0922-d3f9-4465-bf6e-c7951de38c10}, !- Layer 3
  {1095c781-30f8-4860-bf6f-2772b7ce98cf}; !- Layer 4

OS:Material,
  {04820d70-9bd4-4332-aa8d-017cf6dfaec4}, !- Handle
  Exterior_Finish_Vinyl_Light,            !- Name
  Rough,                                  !- Roughness
  0.009525,                               !- Thickness {m}
  0.089435,                               !- Conductivity {W/m-K}
  177.822,                                !- Density {kg/m3}
  1046.75,                                !- Specific Heat {J/kg-K}
  0.9,                                    !- Thermal Absorptance
  0.3,                                    !- Solar Absorptance
  0.3;                                    !- Visible Absorptance

OS:Material,
  {1095c781-30f8-4860-bf6f-2772b7ce98cf}, !- Handle
  GypsumBoard_1_2in,                      !- Name
  Rough,                                  !- Roughness
  0.0127,                                 !- Thickness {m}
  0.1602906,                              !- Conductivity {W/m-K}
  801,                                    !- Density {kg/m3}
  837.4;                                  !- Specific Heat {J/kg-K}

OS:Material,
  {1b6c90eb-3ace-44d0-a186-ccb479a5946d}, !- Handle
  CMU,                                    !- Name
  Rough,                                  !- Roughness
  0.1524,                                 !- Thickness {m}
  0.26323141069154,                       !- Conductivity {W/m-K}
  1001.12184,                             !- Density {kg/m3}
  852.065086091019;                       !- Specific Heat {J/kg-K}

OS:Material,
  {a3ab0922-d3f9-4465-bf6e-c7951de38c10}, !- Handle
  Furring,                                !- Name
  Rough,                                  !- Roughness
  0.0508,                                 !- Thickness {m}
  0.04084516645,                          !- Conductivity {W/m-K}
  110.3341455,                            !- Density {kg/m3}
  1154.52431712832;                       !- Specific Heat {J/kg-K}

