
OS:Version,
  {a9ae0200-c11e-4602-893c-ac6df1aa3327}, !- Handle
  1.3.1;                                  !- Version Identifier

OS:Construction,
  {c45653c5-aa34-48c1-9b32-c16deb7e8842}, !- Handle
  Slab,                                   !- Name
  ,                                       !- Surface Rendering Name
  {2742d01d-8543-445e-8b5c-1a29ec3312f2}, !- Layer 1
  {ec6947b8-1b6b-4010-89b0-2a9d960371b4}, !- Layer 2
  {fe42cfc6-6107-4ece-9504-7bab90067152}, !- Layer 3
  {5298ee2f-02c6-4f30-a3ad-2d3358cdf0d1}; !- Layer 4

OS:Material,
  {ec6947b8-1b6b-4010-89b0-2a9d960371b4}, !- Handle
  Soil_12in,                              !- Name
  Rough,                                  !- Roughness
  0.3048,                                 !- Thickness {m}
  1.731,                                  !- Conductivity {W/m-K}
  1842.3,                                 !- Density {kg/m3}
  418.7;                                  !- Specific Heat {J/kg-K}

OS:Material,
  {fe42cfc6-6107-4ece-9504-7bab90067152}, !- Handle
  SlabMass,                               !- Name
  Rough,                                  !- Roughness
  0.1016,                                 !- Thickness {m}
  1.312675,                               !- Conductivity {W/m-K}
  2242.79999999999,                       !- Density {kg/m3}
  837.4;                                  !- Specific Heat {J/kg-K}

OS:Material,
  {5298ee2f-02c6-4f30-a3ad-2d3358cdf0d1}, !- Handle
  SlabCarpetBareEquivalentMaterial,       !- Name
  Rough,                                  !- Roughness
  0.0254,                                 !- Thickness {m}
  0.0866804263311929,                     !- Conductivity {W/m-K}
  40.05,                                  !- Density {kg/m3}
  1214.23;                                !- Specific Heat {J/kg-K}

OS:Material,
  {2742d01d-8543-445e-8b5c-1a29ec3312f2}, !- Handle
  Mat-Fic-Slab,                           !- Name
  Rough,                                  !- Roughness
  0.0254,                                 !- Thickness {m}
  0.0066922314981722,                     !- Conductivity {W/m-K}
  40.05,                                  !- Density {kg/m3}
  1214.23;                                !- Specific Heat {J/kg-K}

