
OS:Version,
  {08030ed2-3d14-4f36-9039-3a3a6918fb36}, !- Handle
  1.3.1;                                  !- Version Identifier

OS:Construction,
  {f984a49d-9d24-44ec-96af-a593f912a687}, !- Handle
  ExtInsFinWall,                          !- Name
  ,                                       !- Surface Rendering Name
  {f05d3d6c-e5f2-4676-b225-94057dd28786}, !- Layer 1
  {5fe27da3-8ec0-4b98-99d9-86033227f523}, !- Layer 2
  {cc3f302f-66bc-4241-94c4-6ed0001cbc8a}, !- Layer 3
  {42f70f17-8d00-4a78-8c5a-6a156250b570}, !- Layer 4
  {2486e4b8-ee48-4c4f-b298-716262343cc5}, !- Layer 5
  {e6464cdd-8ab0-4382-ae1c-3916c460e77d}; !- Layer 6

OS:Material,
  {f05d3d6c-e5f2-4676-b225-94057dd28786}, !- Handle
  Exterior_Finish_Vinyl_Light,            !- Name
  Rough,                                  !- Roughness
  0.009525,                               !- Thickness {m}
  0.089435,                               !- Conductivity {W/m-K}
  177.822,                                !- Density {kg/m3}
  1046.75,                                !- Specific Heat {J/kg-K}
  0.9,                                    !- Thermal Absorptance
  0.3,                                    !- Solar Absorptance
  0.3;                                    !- Visible Absorptance

OS:Material,
  {5fe27da3-8ec0-4b98-99d9-86033227f523}, !- Handle
  Plywood_1_2in,                          !- Name
  Rough,                                  !- Roughness
  0.0127,                                 !- Thickness {m}
  0.1154577,                              !- Conductivity {W/m-K}
  512.64,                                 !- Density {kg/m3}
  1214.23;                                !- Specific Heat {J/kg-K}

OS:Material,
  {e6464cdd-8ab0-4382-ae1c-3916c460e77d}, !- Handle
  GypsumBoard_1_2in,                      !- Name
  Rough,                                  !- Roughness
  0.0127,                                 !- Thickness {m}
  0.1602906,                              !- Conductivity {W/m-K}
  801,                                    !- Density {kg/m3}
  837.4;                                  !- Specific Heat {J/kg-K}

OS:Material,
  {cc3f302f-66bc-4241-94c4-6ed0001cbc8a}, !- Handle
  StudandCavity,                          !- Name
  Rough,                                  !- Roughness
  0.0889,                                 !- Thickness {m}
  0.0520936039836723,                     !- Conductivity {W/m-K}
  148.39326,                              !- Density {kg/m3}
  1174.03696966425;                       !- Specific Heat {J/kg-K}

OS:Material,
  {42f70f17-8d00-4a78-8c5a-6a156250b570}, !- Handle
  Cavity,                                 !- Name
  Rough,                                  !- Roughness
  0.0889,                                 !- Thickness {m}
  0.0509043714038462,                     !- Conductivity {W/m-K}
  119.206822499999,                       !- Density {kg/m3}
  1160.18704077004;                       !- Specific Heat {J/kg-K}

OS:Material,
  {2486e4b8-ee48-4c4f-b298-716262343cc5}, !- Handle
  StudandCavity 1,                        !- Name
  Rough,                                  !- Roughness
  0.0889,                                 !- Thickness {m}
  0.0520936039836723,                     !- Conductivity {W/m-K}
  148.39326,                              !- Density {kg/m3}
  1174.03696966425;                       !- Specific Heat {J/kg-K}

