
OS:Version,
  {68541c8d-60eb-4299-b4e8-cd97826731d8}, !- Handle
  1.12.4;                                 !- Version Identifier

OS:SimulationControl,
  {2c487a4c-bac9-4ac5-b669-1e49d9da7c2b}, !- Handle
  ,                                       !- Do Zone Sizing Calculation
  ,                                       !- Do System Sizing Calculation
  ,                                       !- Do Plant Sizing Calculation
  No,                                     !- Run Simulation for Sizing Periods
  ;                                       !- Run Simulation for Weather File Run Periods

OS:Sizing:Parameters,
  {dde5af6f-7923-4600-a28a-7556673a0266}, !- Handle
  1.0,                                    !- Heating Sizing Factor
  1.0;                                    !- Cooling Sizing Factor

OS:Timestep,
  {4ebc9f1e-4707-402e-9844-67eb1ffbd522}, !- Handle
  6;                                      !- Number of Timesteps per Hour

OS:ShadowCalculation,
  {ca758bea-4416-4626-9bba-3d8795c79bd6}, !- Handle
  20,                                     !- Calculation Frequency
  200;                                    !- Maximum Figures in Shadow Overlap Calculations

OS:SurfaceConvectionAlgorithm:Inside,
  {aaabfc36-718a-4ab0-b622-f186ebb45230}, !- Handle
  TARP;                                   !- Algorithm

OS:SurfaceConvectionAlgorithm:Outside,
  {9a0a9f6f-4bbd-4b12-a121-9492a1fcd7d6}, !- Handle
  DOE-2;                                  !- Algorithm

OS:HeatBalanceAlgorithm,
  {9d93e563-e1e0-46d7-9e39-d1c8aceb7212}, !- Handle
  ConductionTransferFunction,             !- Algorithm
  200;                                    !- Surface Temperature Upper Limit {C}

OS:RunPeriod,
  {28df894d-6af9-4fb8-8f56-df1753344aa3}, !- Handle
  Run Period,                             !- Name
  1,                                      !- Begin Month
  1,                                      !- Begin Day of Month
  12,                                     !- End Month
  31,                                     !- End Day of Month
  ,                                       !- Use Weather File Holidays and Special Days
  ,                                       !- Use Weather File Daylight Saving Period
  ,                                       !- Apply Weekend Holiday Rule
  ,                                       !- Use Weather File Rain Indicators
  ,                                       !- Use Weather File Snow Indicators
  ;                                       !- Number of Times Runperiod to be Repeated

OS:Building,
  {bf305633-c5a1-4881-9edf-ca5e1a8e1274}, !- Handle
  Building,                               !- Name
  ,                                       !- Building Sector Type
  ,                                       !- North Axis {deg}
  ,                                       !- Nominal Floor to Floor Height {m}
  ,                                       !- Space Type Name
  ,                                       !- Default Construction Set Name
  ,                                       !- Default Schedule Set Name
  ,                                       !- Standards Number of Stories
  ,                                       !- Standards Number of Above Ground Stories
  ,                                       !- Standards Building Type
  12;                                     !- Standards Number of Living Units

OS:ThermalZone,
  {2504a535-0be4-4232-a536-ea2ef78ce600}, !- Handle
  living zone,                            !- Name
  ,                                       !- Multiplier
  ,                                       !- Ceiling Height {m}
  ,                                       !- Volume {m3}
  ,                                       !- Floor Area {m2}
  ,                                       !- Zone Inside Convection Algorithm
  ,                                       !- Zone Outside Convection Algorithm
  ,                                       !- Zone Conditioning Equipment List Name
  {847850fc-121f-4615-87d6-15b6759ab521}, !- Zone Air Inlet Port List
  {95a0e8ed-a69e-42de-a5ac-5f3fc538b1ae}, !- Zone Air Exhaust Port List
  {814ec596-c7cc-4461-ad5b-0250c29051d0}, !- Zone Air Node Name
  ,                                       !- Zone Return Air Node Name
  ,                                       !- Primary Daylighting Control Name
  ,                                       !- Fraction of Zone Controlled by Primary Daylighting Control
  ,                                       !- Secondary Daylighting Control Name
  ,                                       !- Fraction of Zone Controlled by Secondary Daylighting Control
  ,                                       !- Illuminance Map Name
  ,                                       !- Group Rendering Name
  ,                                       !- Thermostat Name
  No;                                     !- Use Ideal Air Loads

OS:Node,
  {85c9d0e1-76c8-4a77-8d45-0459312c37b7}, !- Handle
  Node 1,                                 !- Name
  {814ec596-c7cc-4461-ad5b-0250c29051d0}, !- Inlet Port
  ;                                       !- Outlet Port

OS:Connection,
  {814ec596-c7cc-4461-ad5b-0250c29051d0}, !- Handle
  {50e59d7f-552e-45cb-8172-1d53bcf2aab7}, !- Name
  {2504a535-0be4-4232-a536-ea2ef78ce600}, !- Source Object
  11,                                     !- Outlet Port
  {85c9d0e1-76c8-4a77-8d45-0459312c37b7}, !- Target Object
  2;                                      !- Inlet Port

OS:PortList,
  {847850fc-121f-4615-87d6-15b6759ab521}, !- Handle
  Port List 1,                            !- Name
  {2504a535-0be4-4232-a536-ea2ef78ce600}; !- HVAC Component

OS:PortList,
  {95a0e8ed-a69e-42de-a5ac-5f3fc538b1ae}, !- Handle
  Port List 2,                            !- Name
  {2504a535-0be4-4232-a536-ea2ef78ce600}; !- HVAC Component

OS:Sizing:Zone,
  {f5c534cb-865e-4ded-ae63-6897c82f34bd}, !- Handle
  {2504a535-0be4-4232-a536-ea2ef78ce600}, !- Zone or ZoneList Name
  SupplyAirTemperature,                   !- Zone Cooling Design Supply Air Temperature Input Method
  14,                                     !- Zone Cooling Design Supply Air Temperature {C}
  11.11,                                  !- Zone Cooling Design Supply Air Temperature Difference {deltaC}
  SupplyAirTemperature,                   !- Zone Heating Design Supply Air Temperature Input Method
  40,                                     !- Zone Heating Design Supply Air Temperature {C}
  11.11,                                  !- Zone Heating Design Supply Air Temperature Difference {deltaC}
  0.0085,                                 !- Zone Cooling Design Supply Air Humidity Ratio {kg-H2O/kg-air}
  0.008,                                  !- Zone Heating Design Supply Air Humidity Ratio {kg-H2O/kg-air}
  ,                                       !- Zone Heating Sizing Factor
  ,                                       !- Zone Cooling Sizing Factor
  DesignDay,                              !- Cooling Design Air Flow Method
  ,                                       !- Cooling Design Air Flow Rate {m3/s}
  ,                                       !- Cooling Minimum Air Flow per Zone Floor Area {m3/s-m2}
  ,                                       !- Cooling Minimum Air Flow {m3/s}
  ,                                       !- Cooling Minimum Air Flow Fraction
  DesignDay,                              !- Heating Design Air Flow Method
  ,                                       !- Heating Design Air Flow Rate {m3/s}
  ,                                       !- Heating Maximum Air Flow per Zone Floor Area {m3/s-m2}
  ,                                       !- Heating Maximum Air Flow {m3/s}
  ,                                       !- Heating Maximum Air Flow Fraction
  ,                                       !- Design Zone Air Distribution Effectiveness in Cooling Mode
  ,                                       !- Design Zone Air Distribution Effectiveness in Heating Mode
  No,                                     !- Account for Dedicated Outdoor Air System
  NeutralSupplyAir,                       !- Dedicated Outdoor Air System Control Strategy
  autosize,                               !- Dedicated Outdoor Air Low Setpoint Temperature for Design {C}
  autosize;                               !- Dedicated Outdoor Air High Setpoint Temperature for Design {C}

OS:ZoneHVAC:EquipmentList,
  {64084205-cff1-4587-ba45-0efd1d134439}, !- Handle
  Zone HVAC Equipment List 1,             !- Name
  {2504a535-0be4-4232-a536-ea2ef78ce600}; !- Thermal Zone

OS:Space,
  {36850e41-d04f-476c-8925-c4668265a232}, !- Handle
  living space,                           !- Name
  ,                                       !- Space Type Name
  ,                                       !- Default Construction Set Name
  ,                                       !- Default Schedule Set Name
  ,                                       !- Direction of Relative North {deg}
  ,                                       !- X Origin {m}
  ,                                       !- Y Origin {m}
  ,                                       !- Z Origin {m}
  ,                                       !- Building Story Name
  {2504a535-0be4-4232-a536-ea2ef78ce600}; !- Thermal Zone Name

OS:Surface,
  {fdaed689-db74-47a9-b487-8519aaab1ce7}, !- Handle
  Surface 1,                              !- Name
  Floor,                                  !- Surface Type
  ,                                       !- Construction Name
  {36850e41-d04f-476c-8925-c4668265a232}, !- Space Name
  Ground,                                 !- Outside Boundary Condition
  ,                                       !- Outside Boundary Condition Object
  NoSun,                                  !- Sun Exposure
  NoWind,                                 !- Wind Exposure
  ,                                       !- View Factor to Ground
  ,                                       !- Number of Vertices
  0, -8.17864223450323, 0,                !- X,Y,Z Vertex 1 {m}
  0, 0, 0,                                !- X,Y,Z Vertex 2 {m}
  10.223302793129, 0, 0,                  !- X,Y,Z Vertex 3 {m}
  10.223302793129, -8.17864223450323, 0;  !- X,Y,Z Vertex 4 {m}

OS:Surface,
  {bf93b410-0e6f-4d6a-9ca3-a6e63051944d}, !- Handle
  Surface 2,                              !- Name
  Wall,                                   !- Surface Type
  ,                                       !- Construction Name
  {36850e41-d04f-476c-8925-c4668265a232}, !- Space Name
  Outdoors,                               !- Outside Boundary Condition
  ,                                       !- Outside Boundary Condition Object
  SunExposed,                             !- Sun Exposure
  WindExposed,                            !- Wind Exposure
  ,                                       !- View Factor to Ground
  ,                                       !- Number of Vertices
  0, 0, 2.4384,                           !- X,Y,Z Vertex 1 {m}
  0, 0, 0,                                !- X,Y,Z Vertex 2 {m}
  0, -8.17864223450323, 0,                !- X,Y,Z Vertex 3 {m}
  0, -8.17864223450323, 2.4384;           !- X,Y,Z Vertex 4 {m}

OS:Surface,
  {a5191920-9888-4918-9a44-644f59f9287d}, !- Handle
  Surface 3,                              !- Name
  Wall,                                   !- Surface Type
  ,                                       !- Construction Name
  {36850e41-d04f-476c-8925-c4668265a232}, !- Space Name
  Adiabatic,                              !- Outside Boundary Condition
  ,                                       !- Outside Boundary Condition Object
  NoSun,                                  !- Sun Exposure
  NoWind,                                 !- Wind Exposure
  ,                                       !- View Factor to Ground
  ,                                       !- Number of Vertices
  10.223302793129, 0, 2.4384,             !- X,Y,Z Vertex 1 {m}
  10.223302793129, 0, 0,                  !- X,Y,Z Vertex 2 {m}
  0, 0, 0,                                !- X,Y,Z Vertex 3 {m}
  0, 0, 2.4384;                           !- X,Y,Z Vertex 4 {m}

OS:Surface,
  {5b7b40d7-d0e1-4913-816c-61c48d687c3f}, !- Handle
  Surface 4,                              !- Name
  Wall,                                   !- Surface Type
  ,                                       !- Construction Name
  {36850e41-d04f-476c-8925-c4668265a232}, !- Space Name
  Surface,                                !- Outside Boundary Condition
  {7e39b828-0955-4040-8141-72af127c273d}, !- Outside Boundary Condition Object
  NoSun,                                  !- Sun Exposure
  NoWind,                                 !- Wind Exposure
  ,                                       !- View Factor to Ground
  ,                                       !- Number of Vertices
  10.223302793129, -8.17864223450323, 2.4384, !- X,Y,Z Vertex 1 {m}
  10.223302793129, -8.17864223450323, 0,  !- X,Y,Z Vertex 2 {m}
  10.223302793129, 0, 0,                  !- X,Y,Z Vertex 3 {m}
  10.223302793129, 0, 2.4384;             !- X,Y,Z Vertex 4 {m}

OS:Surface,
  {c55d983c-dbd4-4c3d-8c52-f80ef37fceed}, !- Handle
  Surface 5,                              !- Name
  Wall,                                   !- Surface Type
  ,                                       !- Construction Name
  {36850e41-d04f-476c-8925-c4668265a232}, !- Space Name
  Outdoors,                               !- Outside Boundary Condition
  ,                                       !- Outside Boundary Condition Object
  SunExposed,                             !- Sun Exposure
  WindExposed,                            !- Wind Exposure
  ,                                       !- View Factor to Ground
  ,                                       !- Number of Vertices
  0, -8.17864223450323, 2.4384,           !- X,Y,Z Vertex 1 {m}
  0, -8.17864223450323, 0,                !- X,Y,Z Vertex 2 {m}
  10.223302793129, -8.17864223450323, 0,  !- X,Y,Z Vertex 3 {m}
  10.223302793129, -8.17864223450323, 2.4384; !- X,Y,Z Vertex 4 {m}

OS:Surface,
  {489e0d71-021b-4684-9fb2-fd6e82bd7ebd}, !- Handle
  Surface 6,                              !- Name
  RoofCeiling,                            !- Surface Type
  ,                                       !- Construction Name
  {36850e41-d04f-476c-8925-c4668265a232}, !- Space Name
  Surface,                                !- Outside Boundary Condition
  {17183468-e977-485d-a3dd-dbff7346ec83}, !- Outside Boundary Condition Object
  NoSun,                                  !- Sun Exposure
  NoWind,                                 !- Wind Exposure
  ,                                       !- View Factor to Ground
  ,                                       !- Number of Vertices
  10.223302793129, -8.17864223450323, 2.4384, !- X,Y,Z Vertex 1 {m}
  10.223302793129, 0, 2.4384,             !- X,Y,Z Vertex 2 {m}
  0, 0, 2.4384,                           !- X,Y,Z Vertex 3 {m}
  0, -8.17864223450323, 2.4384;           !- X,Y,Z Vertex 4 {m}

OS:ElectricEquipment:Definition,
  {5e20ed27-1d44-4c1a-9233-82654e4fe402}, !- Handle
  unit=1|bed=nil|bath=nil|space={36850e41-d04f-476c-8925-c4668265a232}, !- Name
  EquipmentLevel,                         !- Design Level Calculation Method
  0,                                      !- Design Level {W}
  ,                                       !- Watts per Space Floor Area {W/m2}
  ;                                       !- Watts per Person {W/person}

OS:Schedule:Ruleset,
  {9df3bd0c-1705-483b-aa53-fc9d749f8a35}, !- Handle
  empty_schedule,                         !- Name
  {6590d967-5dd5-4b95-ad6b-775469a71201}, !- Schedule Type Limits Name
  {458d4920-6e70-4e64-8d96-51895bacba32}; !- Default Day Schedule Name

OS:Schedule:Day,
  {458d4920-6e70-4e64-8d96-51895bacba32}, !- Handle
  Schedule Day 1,                         !- Name
  {6590d967-5dd5-4b95-ad6b-775469a71201}, !- Schedule Type Limits Name
  ,                                       !- Interpolate to Timestep
  24,                                     !- Hour 1
  0,                                      !- Minute 1
  0;                                      !- Value Until Time 1

OS:ElectricEquipment,
  {70d35074-b150-4cca-9444-94df12bed3b8}, !- Handle
  unit=1|bed=nil|bath=nil|space={36850e41-d04f-476c-8925-c4668265a232}, !- Name
  {5e20ed27-1d44-4c1a-9233-82654e4fe402}, !- Electric Equipment Definition Name
  ,                                       !- Space or SpaceType Name
  {9df3bd0c-1705-483b-aa53-fc9d749f8a35}; !- Schedule Name

OS:ScheduleTypeLimits,
  {6590d967-5dd5-4b95-ad6b-775469a71201}, !- Handle
  Fractional,                             !- Name
  0,                                      !- Lower Limit Value
  1,                                      !- Upper Limit Value
  Continuous;                             !- Numeric Type

OS:ThermalZone,
  {ab57dad6-ab4e-41e1-8e30-0272fa9bbf19}, !- Handle
  living zone|unit 2,                     !- Name
  ,                                       !- Multiplier
  ,                                       !- Ceiling Height {m}
  ,                                       !- Volume {m3}
  ,                                       !- Floor Area {m2}
  ,                                       !- Zone Inside Convection Algorithm
  ,                                       !- Zone Outside Convection Algorithm
  ,                                       !- Zone Conditioning Equipment List Name
  {f10d6927-d378-4f5e-9847-d1ff96e01408}, !- Zone Air Inlet Port List
  {486b60fd-328b-4044-b018-e9e7ad6fda90}, !- Zone Air Exhaust Port List
  {455b15a2-56c6-4ea8-8d10-9c2f3cb1b485}, !- Zone Air Node Name
  ,                                       !- Zone Return Air Node Name
  ,                                       !- Primary Daylighting Control Name
  ,                                       !- Fraction of Zone Controlled by Primary Daylighting Control
  ,                                       !- Secondary Daylighting Control Name
  ,                                       !- Fraction of Zone Controlled by Secondary Daylighting Control
  ,                                       !- Illuminance Map Name
  ,                                       !- Group Rendering Name
  ,                                       !- Thermostat Name
  No;                                     !- Use Ideal Air Loads

OS:Node,
  {f4cf53e3-c439-4161-82d3-bfcc5e0a4592}, !- Handle
  Node 2,                                 !- Name
  {455b15a2-56c6-4ea8-8d10-9c2f3cb1b485}, !- Inlet Port
  ;                                       !- Outlet Port

OS:Connection,
  {455b15a2-56c6-4ea8-8d10-9c2f3cb1b485}, !- Handle
  {32148f39-d733-4b26-a8f5-7ff1b2d8a7f1}, !- Name
  {ab57dad6-ab4e-41e1-8e30-0272fa9bbf19}, !- Source Object
  11,                                     !- Outlet Port
  {f4cf53e3-c439-4161-82d3-bfcc5e0a4592}, !- Target Object
  2;                                      !- Inlet Port

OS:PortList,
  {f10d6927-d378-4f5e-9847-d1ff96e01408}, !- Handle
  Port List 3,                            !- Name
  {ab57dad6-ab4e-41e1-8e30-0272fa9bbf19}; !- HVAC Component

OS:PortList,
  {486b60fd-328b-4044-b018-e9e7ad6fda90}, !- Handle
  Port List 4,                            !- Name
  {ab57dad6-ab4e-41e1-8e30-0272fa9bbf19}; !- HVAC Component

OS:Sizing:Zone,
  {6355f2e0-5171-46dd-be1d-1a1c9474d8ba}, !- Handle
  {ab57dad6-ab4e-41e1-8e30-0272fa9bbf19}, !- Zone or ZoneList Name
  SupplyAirTemperature,                   !- Zone Cooling Design Supply Air Temperature Input Method
  14,                                     !- Zone Cooling Design Supply Air Temperature {C}
  11.11,                                  !- Zone Cooling Design Supply Air Temperature Difference {deltaC}
  SupplyAirTemperature,                   !- Zone Heating Design Supply Air Temperature Input Method
  40,                                     !- Zone Heating Design Supply Air Temperature {C}
  11.11,                                  !- Zone Heating Design Supply Air Temperature Difference {deltaC}
  0.0085,                                 !- Zone Cooling Design Supply Air Humidity Ratio {kg-H2O/kg-air}
  0.008,                                  !- Zone Heating Design Supply Air Humidity Ratio {kg-H2O/kg-air}
  ,                                       !- Zone Heating Sizing Factor
  ,                                       !- Zone Cooling Sizing Factor
  DesignDay,                              !- Cooling Design Air Flow Method
  ,                                       !- Cooling Design Air Flow Rate {m3/s}
  ,                                       !- Cooling Minimum Air Flow per Zone Floor Area {m3/s-m2}
  ,                                       !- Cooling Minimum Air Flow {m3/s}
  ,                                       !- Cooling Minimum Air Flow Fraction
  DesignDay,                              !- Heating Design Air Flow Method
  ,                                       !- Heating Design Air Flow Rate {m3/s}
  ,                                       !- Heating Maximum Air Flow per Zone Floor Area {m3/s-m2}
  ,                                       !- Heating Maximum Air Flow {m3/s}
  ,                                       !- Heating Maximum Air Flow Fraction
  ,                                       !- Design Zone Air Distribution Effectiveness in Cooling Mode
  ,                                       !- Design Zone Air Distribution Effectiveness in Heating Mode
  No,                                     !- Account for Dedicated Outdoor Air System
  NeutralSupplyAir,                       !- Dedicated Outdoor Air System Control Strategy
  autosize,                               !- Dedicated Outdoor Air Low Setpoint Temperature for Design {C}
  autosize;                               !- Dedicated Outdoor Air High Setpoint Temperature for Design {C}

OS:ZoneHVAC:EquipmentList,
  {aac00c9c-d615-4f3c-945a-bb92e9c1df58}, !- Handle
  Zone HVAC Equipment List 2,             !- Name
  {ab57dad6-ab4e-41e1-8e30-0272fa9bbf19}; !- Thermal Zone

OS:Space,
  {00da597e-c02a-4038-8324-c7fb9bb75a7d}, !- Handle
  living space|unit 2,                    !- Name
  ,                                       !- Space Type Name
  ,                                       !- Default Construction Set Name
  ,                                       !- Default Schedule Set Name
  ,                                       !- Direction of Relative North {deg}
  ,                                       !- X Origin {m}
  ,                                       !- Y Origin {m}
  ,                                       !- Z Origin {m}
  ,                                       !- Building Story Name
  {ab57dad6-ab4e-41e1-8e30-0272fa9bbf19}; !- Thermal Zone Name

OS:Surface,
  {542ddfd2-7cd9-437e-95fd-c6791e5c2a58}, !- Handle
  Surface 7,                              !- Name
  Floor,                                  !- Surface Type
  ,                                       !- Construction Name
  {00da597e-c02a-4038-8324-c7fb9bb75a7d}, !- Space Name
  Ground,                                 !- Outside Boundary Condition
  ,                                       !- Outside Boundary Condition Object
  NoSun,                                  !- Sun Exposure
  NoWind,                                 !- Wind Exposure
  ,                                       !- View Factor to Ground
  ,                                       !- Number of Vertices
  0, 3.048, 0,                            !- X,Y,Z Vertex 1 {m}
  0, 11.2266422345032, 0,                 !- X,Y,Z Vertex 2 {m}
  10.223302793129, 11.2266422345032, 0,   !- X,Y,Z Vertex 3 {m}
  10.223302793129, 3.048, 0;              !- X,Y,Z Vertex 4 {m}

OS:Surface,
  {cf7d943b-fc60-4779-8010-703c4f3639cd}, !- Handle
  Surface 8,                              !- Name
  Wall,                                   !- Surface Type
  ,                                       !- Construction Name
  {00da597e-c02a-4038-8324-c7fb9bb75a7d}, !- Space Name
  Outdoors,                               !- Outside Boundary Condition
  ,                                       !- Outside Boundary Condition Object
  SunExposed,                             !- Sun Exposure
  WindExposed,                            !- Wind Exposure
  ,                                       !- View Factor to Ground
  ,                                       !- Number of Vertices
  0, 11.2266422345032, 2.4384,            !- X,Y,Z Vertex 1 {m}
  0, 11.2266422345032, 0,                 !- X,Y,Z Vertex 2 {m}
  0, 3.048, 0,                            !- X,Y,Z Vertex 3 {m}
  0, 3.048, 2.4384;                       !- X,Y,Z Vertex 4 {m}

OS:Surface,
  {afbda6ca-c6c2-4678-ac5b-1dda444e6cb5}, !- Handle
  Surface 9,                              !- Name
  Wall,                                   !- Surface Type
  ,                                       !- Construction Name
  {00da597e-c02a-4038-8324-c7fb9bb75a7d}, !- Space Name
  Outdoors,                               !- Outside Boundary Condition
  ,                                       !- Outside Boundary Condition Object
  SunExposed,                             !- Sun Exposure
  WindExposed,                            !- Wind Exposure
  ,                                       !- View Factor to Ground
  ,                                       !- Number of Vertices
  10.223302793129, 11.2266422345032, 2.4384, !- X,Y,Z Vertex 1 {m}
  10.223302793129, 11.2266422345032, 0,   !- X,Y,Z Vertex 2 {m}
  0, 11.2266422345032, 0,                 !- X,Y,Z Vertex 3 {m}
  0, 11.2266422345032, 2.4384;            !- X,Y,Z Vertex 4 {m}

OS:Surface,
  {1e2b04b5-826f-4a35-8760-f22b2c53fcd2}, !- Handle
  Surface 10,                             !- Name
  Wall,                                   !- Surface Type
  ,                                       !- Construction Name
  {00da597e-c02a-4038-8324-c7fb9bb75a7d}, !- Space Name
  Surface,                                !- Outside Boundary Condition
  {7f3d62ac-e101-43c2-b57e-b78d0d4fcb4b}, !- Outside Boundary Condition Object
  NoSun,                                  !- Sun Exposure
  NoWind,                                 !- Wind Exposure
  ,                                       !- View Factor to Ground
  ,                                       !- Number of Vertices
  10.223302793129, 3.048, 2.4384,         !- X,Y,Z Vertex 1 {m}
  10.223302793129, 3.048, 0,              !- X,Y,Z Vertex 2 {m}
  10.223302793129, 11.2266422345032, 0,   !- X,Y,Z Vertex 3 {m}
  10.223302793129, 11.2266422345032, 2.4384; !- X,Y,Z Vertex 4 {m}

OS:Surface,
  {d610c2a7-9718-42b7-893f-c5d98cdf96bb}, !- Handle
  Surface 11,                             !- Name
  Wall,                                   !- Surface Type
  ,                                       !- Construction Name
  {00da597e-c02a-4038-8324-c7fb9bb75a7d}, !- Space Name
  Adiabatic,                              !- Outside Boundary Condition
  ,                                       !- Outside Boundary Condition Object
  NoSun,                                  !- Sun Exposure
  NoWind,                                 !- Wind Exposure
  ,                                       !- View Factor to Ground
  ,                                       !- Number of Vertices
  0, 3.048, 2.4384,                       !- X,Y,Z Vertex 1 {m}
  0, 3.048, 0,                            !- X,Y,Z Vertex 2 {m}
  10.223302793129, 3.048, 0,              !- X,Y,Z Vertex 3 {m}
  10.223302793129, 3.048, 2.4384;         !- X,Y,Z Vertex 4 {m}

OS:Surface,
  {b2815aea-c595-45ba-9807-df76f6d2ab83}, !- Handle
  Surface 12,                             !- Name
  RoofCeiling,                            !- Surface Type
  ,                                       !- Construction Name
  {00da597e-c02a-4038-8324-c7fb9bb75a7d}, !- Space Name
  Surface,                                !- Outside Boundary Condition
  {efbe237c-c729-4d54-ad46-974a8a2b60fa}, !- Outside Boundary Condition Object
  NoSun,                                  !- Sun Exposure
  NoWind,                                 !- Wind Exposure
  ,                                       !- View Factor to Ground
  ,                                       !- Number of Vertices
  10.223302793129, 3.048, 2.4384,         !- X,Y,Z Vertex 1 {m}
  10.223302793129, 11.2266422345032, 2.4384, !- X,Y,Z Vertex 2 {m}
  0, 11.2266422345032, 2.4384,            !- X,Y,Z Vertex 3 {m}
  0, 3.048, 2.4384;                       !- X,Y,Z Vertex 4 {m}

OS:ElectricEquipment:Definition,
  {69178d61-edf7-4221-b63b-bd6923874ed1}, !- Handle
  unit=2|bed=nil|bath=nil|space={00da597e-c02a-4038-8324-c7fb9bb75a7d}, !- Name
  EquipmentLevel,                         !- Design Level Calculation Method
  0,                                      !- Design Level {W}
  ,                                       !- Watts per Space Floor Area {W/m2}
  ;                                       !- Watts per Person {W/person}

OS:Schedule:Ruleset,
  {6d80ac8a-51bd-4ccd-bc89-9329d787a139}, !- Handle
  empty_schedule 1,                       !- Name
  {6590d967-5dd5-4b95-ad6b-775469a71201}, !- Schedule Type Limits Name
  {347d1389-707a-4505-a32c-8776fa4911cc}; !- Default Day Schedule Name

OS:Schedule:Day,
  {347d1389-707a-4505-a32c-8776fa4911cc}, !- Handle
  Schedule Day 2,                         !- Name
  {6590d967-5dd5-4b95-ad6b-775469a71201}, !- Schedule Type Limits Name
  ,                                       !- Interpolate to Timestep
  24,                                     !- Hour 1
  0,                                      !- Minute 1
  0;                                      !- Value Until Time 1

OS:ElectricEquipment,
  {12ad5b4f-6c63-48a1-af49-19d9052464e3}, !- Handle
  unit=2|bed=nil|bath=nil|space={00da597e-c02a-4038-8324-c7fb9bb75a7d}, !- Name
  {69178d61-edf7-4221-b63b-bd6923874ed1}, !- Electric Equipment Definition Name
  ,                                       !- Space or SpaceType Name
  {6d80ac8a-51bd-4ccd-bc89-9329d787a139}; !- Schedule Name

OS:ThermalZone,
  {2a460289-3421-4c04-bec0-f679b229331f}, !- Handle
  living zone|unit 3,                     !- Name
  ,                                       !- Multiplier
  ,                                       !- Ceiling Height {m}