
OS:Version,
  {81708a8e-4102-42db-a250-5bcf7cab7474}, !- Handle
  1.3.1;                                  !- Version Identifier

OS:Construction,
  {0276c6bb-d5e9-47a8-af08-f9b13a3aea1a}, !- Handle
  Triple-Pane High-Gain Low-E Non-metal Frame Air Fill, !- Name
  ,                                       !- Surface Rendering Name
  {54a80036-54b3-4b67-ab04-908f305fe4a6}; !- Layer 1

OS:WindowMaterial:SimpleGlazingSystem,
  {54a80036-54b3-4b67-ab04-908f305fe4a6}, !- Handle
  Triple-Pane Glass,                      !- Name
  1.69431326180111,                       !- U-Factor {W/m2-K}
  0.381364139202683;                      !- Solar Heat Gain Coefficient

OS:StandardsInformation:Construction,
  {85e9d16e-8c95-4bf6-91a7-563ec71cc3cd}, !- Handle
  {0276c6bb-d5e9-47a8-af08-f9b13a3aea1a}, !- Construction Name
  ExteriorWindow;                         !- Intended Surface Type

OS:ComponentData,
  {9a1c5bfb-707a-4f94-a16a-f7a7503d50e3}, !- Handle
  Component Data 1,                       !- Name
  {517d85f4-3be4-4e36-9770-2306280cc07a}, !- UUID
  {4aa6dbe6-c8e0-4c81-8cc2-2c6c4f43609b}, !- Version UUID
  1406055301,                             !- Creation Timestamp
  1406055301,                             !- Version Timestamp
  {0276c6bb-d5e9-47a8-af08-f9b13a3aea1a}, !- Name of Object 1
  {54a80036-54b3-4b67-ab04-908f305fe4a6}, !- Name of Object 2
  {85e9d16e-8c95-4bf6-91a7-563ec71cc3cd}; !- Name of Object 3

