
OS:Version,
  {c8f4d7c3-a530-4eab-a129-f2d7bf5b5e22}, !- Handle
  1.3.1;                                  !- Version Identifier

OS:Construction,
  {ac54e542-0746-47be-9e9d-342887a23a3d}, !- Handle
  ExtInsFinWall,                          !- Name
  ,                                       !- Surface Rendering Name
  {b174f72d-f0cd-4567-93d9-e371887c8c45}, !- Layer 1
  {67e43545-c895-451c-b1b4-4f31f9784d5f}, !- Layer 2
  {9aa1c49c-09dc-4da3-a338-c422bb31fa4f}, !- Layer 3
  {9405046d-c14e-42ac-a646-2df70778881e}; !- Layer 4

OS:Material,
  {b174f72d-f0cd-4567-93d9-e371887c8c45}, !- Handle
  Exterior_Finish_Vinyl_Light,            !- Name
  Rough,                                  !- Roughness
  0.009525,                               !- Thickness {m}
  0.089435,                               !- Conductivity {W/m-K}
  177.822,                                !- Density {kg/m3}
  1046.75,                                !- Specific Heat {J/kg-K}
  0.9,                                    !- Thermal Absorptance
  0.3,                                    !- Solar Absorptance
  0.3;                                    !- Visible Absorptance

OS:Material,
  {67e43545-c895-451c-b1b4-4f31f9784d5f}, !- Handle
  Plywood_1_2in,                          !- Name
  Rough,                                  !- Roughness
  0.0127,                                 !- Thickness {m}
  0.1154577,                              !- Conductivity {W/m-K}
  512.64,                                 !- Density {kg/m3}
  1214.23;                                !- Specific Heat {J/kg-K}

OS:Material,
  {9405046d-c14e-42ac-a646-2df70778881e}, !- Handle
  GypsumBoard_1_2in,                      !- Name
  Rough,                                  !- Roughness
  0.0127,                                 !- Thickness {m}
  0.1602906,                              !- Conductivity {W/m-K}
  801,                                    !- Density {kg/m3}
  837.4;                                  !- Specific Heat {J/kg-K}

OS:Material,
  {9aa1c49c-09dc-4da3-a338-c422bb31fa4f}, !- Handle
  StudandCavity,                          !- Name
  Rough,                                  !- Roughness
  0.1397,                                 !- Thickness {m}
  0.0695550628680399,                     !- Conductivity {W/m-K}
  146.659084512211,                       !- Density {kg/m3}
  1175.52881850606;                       !- Specific Heat {J/kg-K}

