
OS:Version,
  {ff9bf5a5-dec4-4f8b-ae0c-f4c181097fcd}, !- Handle
  1.3.1;                                  !- Version Identifier

OS:Construction,
  {359fcc1f-e33c-4400-936e-62dba1aa1279}, !- Handle
  UnfinCSInsFinFloor,                     !- Name
  ,                                       !- Surface Rendering Name
  {003d6b73-50c4-4da9-b273-3042291e7071}, !- Layer 1
  {fe1e1eea-eac1-4f7e-813d-1cbcd5794b96}, !- Layer 2
  {ebbd0296-5c1e-4856-ad58-591f086b6285}, !- Layer 3
  {8444b564-f382-42eb-a49d-120c8ebfe368}; !- Layer 4

OS:Material,
  {fe1e1eea-eac1-4f7e-813d-1cbcd5794b96}, !- Handle
  Plywood_3_4in,                          !- Name
  Rough,                                  !- Roughness
  0.01905,                                !- Thickness {m}
  0.1154577,                              !- Conductivity {W/m-K}
  512.64,                                 !- Density {kg/m3}
  1214.23;                                !- Specific Heat {J/kg-K}

OS:Material,
  {ebbd0296-5c1e-4856-ad58-591f086b6285}, !- Handle
  Floor_Mass_Wood_Surface,                !- Name
  Rough,                                  !- Roughness
  0.015875,                               !- Thickness {m}
  0.1154577,                              !- Conductivity {W/m-K}
  544.68,                                 !- Density {kg/m3}
  1214.23,                                !- Specific Heat {J/kg-K}
  0.9,                                    !- Thermal Absorptance
  0.6;                                    !- Solar Absorptance

OS:Material,
  {8444b564-f382-42eb-a49d-120c8ebfe368}, !- Handle
  CarpetBareLayer,                        !- Name
  Rough,                                  !- Roughness
  0.0127,                                 !- Thickness {m}
  0.0433443509615385,                     !- Conductivity {W/m-K}
  54.4679999999999,                       !- Density {kg/m3}
  1339.84;                                !- Specific Heat {J/kg-K}

OS:Material,
  {003d6b73-50c4-4da9-b273-3042291e7071}, !- Handle
  CrawlCeilingIns,                        !- Name
  Rough,                                  !- Roughness
  0.23495,                                !- Thickness {m}
  0.104255480780976,                      !- Conductivity {W/m-K}
  106.36479,                              !- Density {kg/m3}
  1151.68513065742;                       !- Specific Heat {J/kg-K}

