
OS:Version,
  {020d3959-de60-46df-9fe3-96eaee28febd}, !- Handle
  1.3.1;                                  !- Version Identifier

OS:Construction,
  {7a97f166-0c36-49e6-98aa-7f2c8e170bd1}, !- Handle
  GrndUninsUnfinCSFloor,                  !- Name
  ,                                       !- Surface Rendering Name
  {294713e9-2fb0-4034-88e4-ff8c5789f62e}, !- Layer 1
  {b40e9f3b-c9e2-4621-8dce-0228b949107c}; !- Layer 2

OS:Material,
  {b40e9f3b-c9e2-4621-8dce-0228b949107c}, !- Handle
  Soil_12in,                              !- Name
  Rough,                                  !- Roughness
  0.3048,                                 !- Thickness {m}
  1.731,                                  !- Conductivity {W/m-K}
  1842.3,                                 !- Density {kg/m3}
  418.7;                                  !- Specific Heat {J/kg-K}

OS:Material:NoMass,
  {294713e9-2fb0-4034-88e4-ff8c5789f62e}, !- Handle
  CFloor_FicR_Wall_R_10_XPS,              !- Name
  Rough,                                  !- Roughness
  5.25591965431866;                       !- Thermal Resistance {m2-K/W}

