
Version,
  8.0;                                    !- Version Identifier

Material:NoMass,
  CFloor_FicR_Ceiling_R_30_Closed_Cell_Spray_Foam, !- Name
  Rough,                                  !- Roughness
  176.1,                                  !- Thermal Resistance {m2-K/W}
  0.9,                                    !- Thermal Absorptance
  0.7,                                    !- Solar Absorptance
  0.7;                                    !- Visible Absorptance

