
Version,
  8.0;                                    !- Version Identifier

Material:NoMass,
  CFloor_FicR_Wall_R_12_Polyiso,          !- Name
  Rough,                                  !- Roughness
  4.94793517616174,                       !- Thermal Resistance {m2-K/W}
  0.9,                                    !- Thermal Absorptance
  0.7,                                    !- Solar Absorptance
  0.7;                                    !- Visible Absorptance

