
Version,
  8.0;                                    !- Version Identifier

Material:NoMass,
  CFloor_FicR_Wall_R_6_Polyiso,           !- Name
  Rough,                                  !- Roughness
  7.01515410102735,                       !- Thermal Resistance {m2-K/W}
  0.9,                                    !- Thermal Absorptance
  0.7,                                    !- Solar Absorptance
  0.7;                                    !- Visible Absorptance

