
Version,
  8.0;                                    !- Version Identifier

Material:NoMass,
  FBaseWall_FicR_Whole_Wall_R_5_XPS,      !- Name
  Rough,                                  !- Roughness
  0.145662742196422,                      !- Thermal Resistance {m2-K/W}
  0.9,                                    !- Thermal Absorptance
  0.7,                                    !- Solar Absorptance
  0.7;                                    !- Visible Absorptance

