
Version,
  8.0;                                    !- Version Identifier

Material,
  Layer3,                                 !- Name
  Rough,                                  !- Roughness
  0.0889,                                 !- Thickness {m}
  0.13371975,                             !- Conductivity {W/m-K}
  833.5206,                               !- Density {kg/m3}
  1046.75,                                !- Specific Heat {J/kg-K}
  0.9,                                    !- Thermal Absorptance
  0.7,                                    !- Solar Absorptance
  0.7;                                    !- Visible Absorptance

