
Version,
  8.0;                                    !- Version Identifier

Material,
  Layer1,                                 !- Name
  Rough,                                  !- Roughness
  0.06985,                                !- Thickness {m}
  0.063888325,                            !- Conductivity {W/m-K}
  1065.0096,                              !- Density {kg/m3}
  1046.75,                                !- Specific Heat {J/kg-K}
  0.9,                                    !- Thermal Absorptance
  0.7,                                    !- Solar Absorptance
  0.7;                                    !- Visible Absorptance

