
Version,
  8.0;                                    !- Version Identifier

Material,
  Layer2,                                 !- Name
  Rough,                                  !- Roughness
  0.094615,                               !- Thickness {m}
  0.49867225,                             !- Conductivity {W/m-K}
  1553.94,                                !- Density {kg/m3}
  879.27,                                 !- Specific Heat {J/kg-K}
  0.9,                                    !- Thermal Absorptance
  0.7,                                    !- Solar Absorptance
  0.7;                                    !- Visible Absorptance

