
Version,
  8.0;                                    !- Version Identifier

Material:NoMass,
  UFBaseFloor_FicR_Whole_Wall_R_18_Polyiso, !- Name
  Rough,                                  !- Roughness
  8.33864894640409,                       !- Thermal Resistance {m2-K/W}
  0.9,                                    !- Thermal Absorptance
  0.7,                                    !- Solar Absorptance
  0.7;                                    !- Visible Absorptance

