
Version,
  8.0;                                    !- Version Identifier

Material:NoMass,
  UFBaseWall_FicR_Ceiling_R_13_Fiberglass_Batt, !- Name
  Rough,                                  !- Roughness
  0.511257279809397,                      !- Thermal Resistance {m2-K/W}
  0.9,                                    !- Thermal Absorptance
  0.7,                                    !- Solar Absorptance
  0.7;                                    !- Visible Absorptance

