
Version,
  8.0;                                    !- Version Identifier

Material:NoMass,
  UFBaseWall_FicR_Whole_Wall_R_11_Fiberglass_Batt_Gr_2_2x4_16_in_o.c., !- Name
  Rough,                                  !- Roughness
  1.39361317371548,                       !- Thermal Resistance {m2-K/W}
  0.9,                                    !- Thermal Absorptance
  0.7,                                    !- Solar Absorptance
  0.7;                                    !- Visible Absorptance

