
Version,
  8.0;                                    !- Version Identifier

Material:NoMass,
  UFBaseFloor_FicR_Whole_Wall_R_15_XPS,   !- Name
  Rough,                                  !- Roughness
  9.58784349816594,                       !- Thermal Resistance {m2-K/W}
  0.9,                                    !- Thermal Absorptance
  0.7,                                    !- Solar Absorptance
  0.7;                                    !- Visible Absorptance

