
Version,
  8.0;                                    !- Version Identifier

Material:NoMass,
  UFBaseWall_FicR_Half_Wall_R_10_XPS,     !- Name
  Rough,                                  !- Roughness
  0.798334450914941,                      !- Thermal Resistance {m2-K/W}
  0.9,                                    !- Thermal Absorptance
  0.7,                                    !- Solar Absorptance
  0.7;                                    !- Visible Absorptance

