
Version,
  8.0;                                    !- Version Identifier

Material:NoMass,
  UFBaseWall_FicR_Whole_Wall_R_6_Polyiso, !- Name
  Rough,                                  !- Roughness
  0.141120139064783,                      !- Thermal Resistance {m2-K/W}
  0.9,                                    !- Thermal Absorptance
  0.7,                                    !- Solar Absorptance
  0.7;                                    !- Visible Absorptance

