!- NOTE: Auto-generated from /test/osw_files/SFD_2000sqft_2story_SL_FA_AllLayersButRoofingMaterial.osw

OS:Version,
  {58e60daf-8f6c-459c-bc42-580eff887168}, !- Handle
  2.1.0;                                  !- Version Identifier

OS:Building,
  {bf305633-c5a1-4881-9edf-ca5e1a8e1274}, !- Handle
  Building,                               !- Name
  ,                                       !- Building Sector Type
  ,                                       !- North Axis {deg}
  ,                                       !- Nominal Floor to Floor Height {m}
  ,                                       !- Space Type Name
  ,                                       !- Default Construction Set Name
  ,                                       !- Default Schedule Set Name
  3,                                      !- Standards Number of Stories
  3,                                      !- Standards Number of Above Ground Stories
  singlefamilydetached,                   !- Standards Building Type
  1;                                      !- Standards Number of Living Units

OS:YearDescription,
  {513d8dda-86cb-442a-b01c-1f7f0e0ac70e}; !- Handle

OS:SimulationControl,
  {2c487a4c-bac9-4ac5-b669-1e49d9da7c2b}, !- Handle
  ,                                       !- Do Zone Sizing Calculation
  ,                                       !- Do System Sizing Calculation
  ,                                       !- Do Plant Sizing Calculation
  No,                                     !- Run Simulation for Sizing Periods
  ;                                       !- Run Simulation for Weather File Run Periods

OS:Timestep,
  {4ebc9f1e-4707-402e-9844-67eb1ffbd522}, !- Handle
  6;                                      !- Number of Timesteps per Hour

OS:RunPeriod,
  {28df894d-6af9-4fb8-8f56-df1753344aa3}, !- Handle
  Run Period,                             !- Name
  1,                                      !- Begin Month
  1,                                      !- Begin Day of Month
  12,                                     !- End Month
  31,                                     !- End Day of Month
  ,                                       !- Use Weather File Holidays and Special Days
  ,                                       !- Use Weather File Daylight Saving Period
  ,                                       !- Apply Weekend Holiday Rule
  ,                                       !- Use Weather File Rain Indicators
  ,                                       !- Use Weather File Snow Indicators
  ;                                       !- Number of Times Runperiod to be Repeated

OS:Sizing:Parameters,
  {dde5af6f-7923-4600-a28a-7556673a0266}, !- Handle
  1.0,                                    !- Heating Sizing Factor
  1.0;                                    !- Cooling Sizing Factor

OS:ShadowCalculation,
  {ca758bea-4416-4626-9bba-3d8795c79bd6}, !- Handle
  20,                                     !- Calculation Frequency
  200;                                    !- Maximum Figures in Shadow Overlap Calculations

OS:SurfaceConvectionAlgorithm:Inside,
  {aaabfc36-718a-4ab0-b622-f186ebb45230}, !- Handle
  TARP;                                   !- Algorithm

OS:SurfaceConvectionAlgorithm:Outside,
  {9a0a9f6f-4bbd-4b12-a121-9492a1fcd7d6}, !- Handle
  DOE-2;                                  !- Algorithm

OS:HeatBalanceAlgorithm,
  {9d93e563-e1e0-46d7-9e39-d1c8aceb7212}, !- Handle
  ConductionTransferFunction,             !- Algorithm
  200;                                    !- Surface Temperature Upper Limit {C}

OS:ZoneCapacitanceMultiplier:ResearchSpecial,
  {6bfced16-b16f-47f6-8223-f7e267d75d19}, !- Handle
  ,                                       !- Temperature Capacity Multiplier
  15,                                     !- Humidity Capacity Multiplier
  ;                                       !- Carbon Dioxide Capacity Multiplier

OS:ThermalZone,
  {50a045e0-962b-44ac-9fcf-272534bab520}, !- Handle
  living zone,                            !- Name
  ,                                       !- Multiplier
  ,                                       !- Ceiling Height {m}
  ,                                       !- Volume {m3}
  ,                                       !- Floor Area {m2}
  ,                                       !- Zone Inside Convection Algorithm
  ,                                       !- Zone Outside Convection Algorithm
  ,                                       !- Zone Conditioning Equipment List Name
  {4ec1f78d-523a-4c5f-a2e9-aee43c983ebb}, !- Zone Air Inlet Port List
  {cf7405d9-7491-4848-9908-1792c5ec71c8}, !- Zone Air Exhaust Port List
  {9eeddf37-9a1f-4c65-99d4-4936f6e9fb1d}, !- Zone Air Node Name
  ,                                       !- Zone Return Air Node Name
  ,                                       !- Primary Daylighting Control Name
  ,                                       !- Fraction of Zone Controlled by Primary Daylighting Control
  ,                                       !- Secondary Daylighting Control Name
  ,                                       !- Fraction of Zone Controlled by Secondary Daylighting Control
  ,                                       !- Illuminance Map Name
  ,                                       !- Group Rendering Name
  ,                                       !- Thermostat Name
  No;                                     !- Use Ideal Air Loads

OS:Node,
  {a6ee7fd7-23d8-4bfe-97fc-d955ffea1a58}, !- Handle
  Node 1,                                 !- Name
  {9eeddf37-9a1f-4c65-99d4-4936f6e9fb1d}, !- Inlet Port
  ;                                       !- Outlet Port

OS:Connection,
  {9eeddf37-9a1f-4c65-99d4-4936f6e9fb1d}, !- Handle
  {d6dc34d4-75b4-483c-83ac-f2ab354cc4a8}, !- Name
  {50a045e0-962b-44ac-9fcf-272534bab520}, !- Source Object
  11,                                     !- Outlet Port
  {a6ee7fd7-23d8-4bfe-97fc-d955ffea1a58}, !- Target Object
  2;                                      !- Inlet Port

OS:PortList,
  {4ec1f78d-523a-4c5f-a2e9-aee43c983ebb}, !- Handle
  Port List 1,                            !- Name
  {50a045e0-962b-44ac-9fcf-272534bab520}; !- HVAC Component

OS:PortList,
  {cf7405d9-7491-4848-9908-1792c5ec71c8}, !- Handle
  Port List 2,                            !- Name
  {50a045e0-962b-44ac-9fcf-272534bab520}; !- HVAC Component

OS:Sizing:Zone,
  {5d4652ce-a5ce-4e1c-b119-66daca68ec4b}, !- Handle
  {50a045e0-962b-44ac-9fcf-272534bab520}, !- Zone or ZoneList Name
  SupplyAirTemperature,                   !- Zone Cooling Design Supply Air Temperature Input Method
  14,                                     !- Zone Cooling Design Supply Air Temperature {C}
  11.11,                                  !- Zone Cooling Design Supply Air Temperature Difference {deltaC}
  SupplyAirTemperature,                   !- Zone Heating Design Supply Air Temperature Input Method
  40,                                     !- Zone Heating Design Supply Air Temperature {C}
  11.11,                                  !- Zone Heating Design Supply Air Temperature Difference {deltaC}
  0.0085,                                 !- Zone Cooling Design Supply Air Humidity Ratio {kg-H2O/kg-air}
  0.008,                                  !- Zone Heating Design Supply Air Humidity Ratio {kg-H2O/kg-air}
  ,                                       !- Zone Heating Sizing Factor
  ,                                       !- Zone Cooling Sizing Factor
  DesignDay,                              !- Cooling Design Air Flow Method
  ,                                       !- Cooling Design Air Flow Rate {m3/s}
  ,                                       !- Cooling Minimum Air Flow per Zone Floor Area {m3/s-m2}
  ,                                       !- Cooling Minimum Air Flow {m3/s}
  ,                                       !- Cooling Minimum Air Flow Fraction
  DesignDay,                              !- Heating Design Air Flow Method
  ,                                       !- Heating Design Air Flow Rate {m3/s}
  ,                                       !- Heating Maximum Air Flow per Zone Floor Area {m3/s-m2}
  ,                                       !- Heating Maximum Air Flow {m3/s}
  ,                                       !- Heating Maximum Air Flow Fraction
  ,                                       !- Design Zone Air Distribution Effectiveness in Cooling Mode
  ,                                       !- Design Zone Air Distribution Effectiveness in Heating Mode
  No,                                     !- Account for Dedicated Outdoor Air System
  NeutralSupplyAir,                       !- Dedicated Outdoor Air System Control Strategy
  autosize,                               !- Dedicated Outdoor Air Low Setpoint Temperature for Design {C}
  autosize;                               !- Dedicated Outdoor Air High Setpoint Temperature for Design {C}

OS:ZoneHVAC:EquipmentList,
  {73f7eed7-f994-4d59-89e0-b0f93c9e483f}, !- Handle
  Zone HVAC Equipment List 1,             !- Name
  {50a045e0-962b-44ac-9fcf-272534bab520}; !- Thermal Zone

OS:Space,
  {9538aae2-957d-4ab3-aea8-f381d0a10b53}, !- Handle
  living space,                           !- Name
  ,                                       !- Space Type Name
  ,                                       !- Default Construction Set Name
  ,                                       !- Default Schedule Set Name
  -0,                                     !- Direction of Relative North {deg}
  0,                                      !- X Origin {m}
  0,                                      !- Y Origin {m}
  0,                                      !- Z Origin {m}
  ,                                       !- Building Story Name
  {50a045e0-962b-44ac-9fcf-272534bab520}, !- Thermal Zone Name
  ,                                       !- Part of Total Floor Area
  ,                                       !- Design Specification Outdoor Air Object Name
  {bc75581c-71ad-492d-9bb8-23c4aa1fc66d}; !- Building Unit Name

OS:Surface,
  {2ff5086e-f7d5-4348-951d-60e55a9bc2f1}, !- Handle
  Surface 1,                              !- Name
  Floor,                                  !- Surface Type
  ,                                       !- Construction Name
  {9538aae2-957d-4ab3-aea8-f381d0a10b53}, !- Space Name
  Ground,                                 !- Outside Boundary Condition
  ,                                       !- Outside Boundary Condition Object
  NoSun,                                  !- Sun Exposure
  NoWind,                                 !- Wind Exposure
  ,                                       !- View Factor to Ground
  ,                                       !- Number of Vertices
  0, 0, 0,                                !- X,Y,Z Vertex 1 {m}
  0, 5.56486118425249, 0,                 !- X,Y,Z Vertex 2 {m}
  11.129722368505, 5.56486118425249, 0,   !- X,Y,Z Vertex 3 {m}
  11.129722368505, 0, 0;                  !- X,Y,Z Vertex 4 {m}

OS:Surface,
  {a253c2c9-b093-4754-aa1d-4722fc55810c}, !- Handle
  Surface 2,                              !- Name
  Wall,                                   !- Surface Type
  ,                                       !- Construction Name
  {9538aae2-957d-4ab3-aea8-f381d0a10b53}, !- Space Name
  Outdoors,                               !- Outside Boundary Condition
  ,                                       !- Outside Boundary Condition Object
  SunExposed,                             !- Sun Exposure
  WindExposed,                            !- Wind Exposure
  ,                                       !- View Factor to Ground
  ,                                       !- Number of Vertices
  0, 5.56486118425249, 2.4384,            !- X,Y,Z Vertex 1 {m}
  0, 5.56486118425249, 0,                 !- X,Y,Z Vertex 2 {m}
  0, 0, 0,                                !- X,Y,Z Vertex 3 {m}
  0, 0, 2.4384;                           !- X,Y,Z Vertex 4 {m}

OS:Surface,
  {2bbd325f-398c-43a8-b4cd-828bcf0ff827}, !- Handle
  Surface 3,                              !- Name
  Wall,                                   !- Surface Type
  ,                                       !- Construction Name
  {9538aae2-957d-4ab3-aea8-f381d0a10b53}, !- Space Name
  Outdoors,                               !- Outside Boundary Condition
  ,                                       !- Outside Boundary Condition Object
  SunExposed,                             !- Sun Exposure
  WindExposed,                            !- Wind Exposure
  ,                                       !- View Factor to Ground
  ,                                       !- Number of Vertices
  11.129722368505, 5.56486118425249, 2.4384, !- X,Y,Z Vertex 1 {m}
  11.129722368505, 5.56486118425249, 0,   !- X,Y,Z Vertex 2 {m}
  0, 5.56486118425249, 0,                 !- X,Y,Z Vertex 3 {m}
  0, 5.56486118425249, 2.4384;            !- X,Y,Z Vertex 4 {m}

OS:Surface,
  {7eede3dd-f279-472d-bcd6-cb6f3c648b71}, !- Handle
  Surface 4,                              !- Name
  Wall,                                   !- Surface Type
  ,                                       !- Construction Name
  {9538aae2-957d-4ab3-aea8-f381d0a10b53}, !- Space Name
  Outdoors,                               !- Outside Boundary Condition
  ,                                       !- Outside Boundary Condition Object
  SunExposed,                             !- Sun Exposure
  WindExposed,                            !- Wind Exposure
  ,                                       !- View Factor to Ground
  ,                                       !- Number of Vertices
  11.129722368505, 0, 2.4384,             !- X,Y,Z Vertex 1 {m}
  11.129722368505, 0, 0,                  !- X,Y,Z Vertex 2 {m}
  11.129722368505, 5.56486118425249, 0,   !- X,Y,Z Vertex 3 {m}
  11.129722368505, 5.56486118425249, 2.4384; !- X,Y,Z Vertex 4 {m}

OS:Surface,
  {76357ccb-d38b-4dc8-9ad3-381c9fd73dca}, !- Handle
  Surface 5,                              !- Name
  Wall,                                   !- Surface Type
  ,                                       !- Construction Name
  {9538aae2-957d-4ab3-aea8-f381d0a10b53}, !- Space Name
  Outdoors,                               !- Outside Boundary Condition
  ,                                       !- Outside Boundary Condition Object
  SunExposed,                             !- Sun Exposure
  WindExposed,                            !- Wind Exposure
  ,                                       !- View Factor to Ground
  ,                                       !- Number of Vertices
  0, 0, 2.4384,                           !- X,Y,Z Vertex 1 {m}
  0, 0, 0,                                !- X,Y,Z Vertex 2 {m}
  11.129722368505, 0, 0,                  !- X,Y,Z Vertex 3 {m}
  11.129722368505, 0, 2.4384;             !- X,Y,Z Vertex 4 {m}

OS:Surface,
  {4115a7fe-9de2-4730-aa16-78bbb4d34dd7}, !- Handle
  Surface 6,                              !- Name
  RoofCeiling,                            !- Surface Type
  {38efa135-b34d-4d1c-b05c-503349c8587f}, !- Construction Name
  {9538aae2-957d-4ab3-aea8-f381d0a10b53}, !- Space Name
  Surface,                                !- Outside Boundary Condition
  {44cef826-9fed-41cb-a97e-7f11c8e6ea5e}, !- Outside Boundary Condition Object
  NoSun,                                  !- Sun Exposure
  NoWind,                                 !- Wind Exposure
  ,                                       !- View Factor to Ground
  ,                                       !- Number of Vertices
  11.129722368505, 0, 2.4384,             !- X,Y,Z Vertex 1 {m}
  11.129722368505, 5.56486118425249, 2.4384, !- X,Y,Z Vertex 2 {m}
  0, 5.56486118425249, 2.4384,            !- X,Y,Z Vertex 3 {m}
  0, 0, 2.4384;                           !- X,Y,Z Vertex 4 {m}

OS:Space,
  {621347e2-0c92-4634-bd24-5f7e799c5171}, !- Handle
  living space|story 2,                   !- Name
  ,                                       !- Space Type Name
  ,                                       !- Default Construction Set Name
  ,                                       !- Default Schedule Set Name
  -0,                                     !- Direction of Relative North {deg}
  0,                                      !- X Origin {m}
  0,                                      !- Y Origin {m}
  2.4384,                                 !- Z Origin {m}
  ,                                       !- Building Story Name
  {50a045e0-962b-44ac-9fcf-272534bab520}, !- Thermal Zone Name
  ,                                       !- Part of Total Floor Area
  ,                                       !- Design Specification Outdoor Air Object Name
  {bc75581c-71ad-492d-9bb8-23c4aa1fc66d}; !- Building Unit Name

OS:Surface,
  {44cef826-9fed-41cb-a97e-7f11c8e6ea5e}, !- Handle
  Surface 7,                              !- Name
  Floor,                                  !- Surface Type
  {38efa135-b34d-4d1c-b05c-503349c8587f}, !- Construction Name
  {621347e2-0c92-4634-bd24-5f7e799c5171}, !- Space Name
  Surface,                                !- Outside Boundary Condition
  {4115a7fe-9de2-4730-aa16-78bbb4d34dd7}, !- Outside Boundary Condition Object
  NoSun,                                  !- Sun Exposure
  NoWind,                                 !- Wind Exposure
  ,                                       !- View Factor to Ground
  ,                                       !- Number of Vertices
  0, 0, 0,                                !- X,Y,Z Vertex 1 {m}
  0, 5.56486118425249, 0,                 !- X,Y,Z Vertex 2 {m}
  11.129722368505, 5.56486118425249, 0,   !- X,Y,Z Vertex 3 {m}
  11.129722368505, 0, 0;                  !- X,Y,Z Vertex 4 {m}

OS:Surface,
  {2cad6257-17a6-4027-a6d2-f37779fc0a73}, !- Handle
  Surface 8,                              !- Name
  Wall,                                   !- Surface Type
  ,                                       !- Construction Name
  {621347e2-0c92-4634-bd24-5f7e799c5171}, !- Space Name
  Outdoors,                               !- Outside Boundary Condition
  ,                                       !- Outside Boundary Condition Object
  SunExposed,                             !- Sun Exposure
  WindExposed,                            !- Wind Exposure
  ,                                       !- View Factor to Ground
  ,                                       !- Number of Vertices
  0, 5.56486118425249, 2.4384,            !- X,Y,Z Vertex 1 {m}
  0, 5.56486118425249, 0,                 !- X,Y,Z Vertex 2 {m}
  0, 0, 0,                                !- X,Y,Z Vertex 3 {m}
  0, 0, 2.4384;                           !- X,Y,Z Vertex 4 {m}

OS:Surface,
  {9ef1c57e-5f1f-4e79-82e1-77bff72b6bd4}, !- Handle
  Surface 9,                              !- Name
  Wall,                                   !- Surface Type
  ,                                       !- Construction Name
  {621347e2-0c92-4634-bd24-5f7e799c5171}, !- Space Name
  Outdoors,                               !- Outside Boundary Condition
  ,                                       !- Outside Boundary Condition Object
  SunExposed,                             !- Sun Exposure
  WindExposed,                            !- Wind Exposure
  ,                                       !- View Factor to Ground
  ,                                       !- Number of Vertices
  11.129722368505, 5.56486118425249, 2.4384, !- X,Y,Z Vertex 1 {m}
  11.129722368505, 5.56486118425249, 0,   !- X,Y,Z Vertex 2 {m}
  0, 5.56486118425249, 0,                 !- X,Y,Z Vertex 3 {m}
  0, 5.56486118425249, 2.4384;            !- X,Y,Z Vertex 4 {m}

OS:Surface,
  {f7226764-c098-4e53-a136-e4c93e3330ca}, !- Handle
  Surface 10,                             !- Name
  Wall,                                   !- Surface Type
  ,                                       !- Construction Name
  {621347e2-0c92-4634-bd24-5f7e799c5171}, !- Space Name
  Outdoors,                               !- Outside Boundary Condition
  ,                                       !- Outside Boundary Condition Object
  SunExposed,                             !- Sun Exposure
  WindExposed,                            !- Wind Exposure
  ,                                       !- View Factor to Ground
  ,                                       !- Number of Vertices
  11.129722368505, 0, 2.4384,             !- X,Y,Z Vertex 1 {m}
  11.129722368505, 0, 0,                  !- X,Y,Z Vertex 2 {m}
  11.129722368505, 5.56486118425249, 0,   !- X,Y,Z Vertex 3 {m}
  11.129722368505, 5.56486118425249, 2.4384; !- X,Y,Z Vertex 4 {m}

OS:Surface,
  {fff266cb-4236-452d-b2b0-a9801f28fdad}, !- Handle
  Surface 11,                             !- Name
  Wall,                                   !- Surface Type
  ,                                       !- Construction Name
  {621347e2-0c92-4634-bd24-5f7e799c5171}, !- Space Name
  Outdoors,                               !- Outside Boundary Condition
  ,                                       !- Outside Boundary Condition Object
  SunExposed,                             !- Sun Exposure
  WindExposed,                            !- Wind Exposure
  ,                                       !- View Factor to Ground
  ,                                       !- Number of Vertices
  0, 0, 2.4384,                           !- X,Y,Z Vertex 1 {m}
  0, 0, 0,                                !- X,Y,Z Vertex 2 {m}
  11.129722368505, 0, 0,                  !- X,Y,Z Vertex 3 {m}
  11.129722368505, 0, 2.4384;             !- X,Y,Z Vertex 4 {m}

OS:Surface,
  {0f350e90-e370-4aaa-a770-3afe7bd108c2}, !- Handle
  Surface 12,                             !- Name
  RoofCeiling,                            !- Surface Type
  {38efa135-b34d-4d1c-b05c-503349c8587f}, !- Construction Name
  {621347e2-0c92-4634-bd24-5f7e799c5171}, !- Space Name
  Surface,                                !- Outside Boundary Condition
  {b200b6f6-bbb1-40d0-be8b-5aed0df29a96}, !- Outside Boundary Condition Object
  NoSun,                                  !- Sun Exposure
  NoWind,                                 !- Wind Exposure
  ,                                       !- View Factor to Ground
  ,                                       !- Number of Vertices
  11.129722368505, 0, 2.4384,             !- X,Y,Z Vertex 1 {m}
  11.129722368505, 5.56486118425249, 2.4384, !- X,Y,Z Vertex 2 {m}
  0, 5.56486118425249, 2.4384,            !- X,Y,Z Vertex 3 {m}
  0, 0, 2.4384;                           !- X,Y,Z Vertex 4 {m}

OS:Surface,
  {b200b6f6-bbb1-40d0-be8b-5aed0df29a96}, !- Handle
  Surface 13,                             !- Name
  Floor,                                  !- Surface Type
  {38efa135-b34d-4d1c-b05c-503349c8587f}, !- Construction Name
  {877fc016-9dc1-457e-bcdd-ecf756a5e1b5}, !- Space Name
  Surface,                                !- Outside Boundary Condition
  {0f350e90-e370-4aaa-a770-3afe7bd108c2}, !- Outside Boundary Condition Object
  NoSun,                                  !- Sun Exposure
  NoWind,                                 !- Wind Exposure
  ,                                       !- View Factor to Ground
  ,                                       !- Number of Vertices
  0, 5.56486118425249, 0,                 !- X,Y,Z Vertex 1 {m}
  11.129722368505, 5.56486118425249, 0,   !- X,Y,Z Vertex 2 {m}
  11.129722368505, 0, 0,                  !- X,Y,Z Vertex 3 {m}
  0, 0, 0;                                !- X,Y,Z Vertex 4 {m}

OS:Surface,
  {b141e0bf-8722-4649-a652-fbb84c5017db}, !- Handle
  Surface 14,                             !- Name
  RoofCeiling,                            !- Surface Type
  {cfd34457-2007-4b62-beb0-feb34f0f560f}, !- Construction Name
  {877fc016-9dc1-457e-bcdd-ecf756a5e1b5}, !- Space Name
  Outdoors,                               !- Outside Boundary Condition
  ,                                       !- Outside Boundary Condition Object
  SunExposed,                             !- Sun Exposure
  WindExposed,                            !- Wind Exposure
  ,                                       !- View Factor to Ground
  ,                                       !- Number of Vertices
  11.129722368505, 2.78243059212624, 1.39121529606312, !- X,Y,Z Vertex 1 {m}
  0, 2.78243059212624, 1.39121529606312,  !- X,Y,Z Vertex 2 {m}
  0, 0, 0,                                !- X,Y,Z Vertex 3 {m}
  11.129722368505, 0, 0;                  !- X,Y,Z Vertex 4 {m}

OS:Surface,
  {d4e038cf-c3e7-44d7-a64b-392d61872e5d}, !- Handle
  Surface 15,                             !- Name
  RoofCeiling,                            !- Surface Type
  {cfd34457-2007-4b62-beb0-feb34f0f560f}, !- Construction Name
  {877fc016-9dc1-457e-bcdd-ecf756a5e1b5}, !- Space Name
  Outdoors,                               !- Outside Boundary Condition
  ,                                       !- Outside Boundary Condition Object
  SunExposed,                             !- Sun Exposure
  WindExposed,                            !- Wind Exposure
  ,                                       !- View Factor to Ground
  ,                                       !- Number of Vertices
  0, 2.78243059212624, 1.39121529606312,  !- X,Y,Z Vertex 1 {m}
  11.129722368505, 2.78243059212624, 1.39121529606312, !- X,Y,Z Vertex 2 {m}
  11.129722368505, 5.56486118425249, 0,   !- X,Y,Z Vertex 3 {m}
  0, 5.56486118425249, 0;                 !- X,Y,Z Vertex 4 {m}

OS:Surface,
  {b94b56c7-2dce-4c9e-9139-ea33868e8b23}, !- Handle
  Surface 16,                             !- Name
  Wall,                                   !- Surface Type
  ,                                       !- Construction Name
  {877fc016-9dc1-457e-bcdd-ecf756a5e1b5}, !- Space Name
  Outdoors,                               !- Outside Boundary Condition
  ,                                       !- Outside Boundary Condition Object
  SunExposed,                             !- Sun Exposure
  WindExposed,                            !- Wind Exposure
  ,                                       !- View Factor to Ground
  ,                                       !- Number of Vertices
  0, 2.78243059212624, 1.39121529606312,  !- X,Y,Z Vertex 1 {m}
  0, 5.56486118425249, 0,                 !- X,Y,Z Vertex 2 {m}
  0, 0, 0;                                !- X,Y,Z Vertex 3 {m}

OS:Surface,
  {e1f47653-d2b4-4090-b510-ae1e0200395a}, !- Handle
  Surface 17,                             !- Name
  Wall,                                   !- Surface Type
  ,                                       !- Construction Name
  {877fc016-9dc1-457e-bcdd-ecf756a5e1b5}, !- Space Name
  Outdoors,                               !- Outside Boundary Condition
  ,                                       !- Outside Boundary Condition Object
  SunExposed,                             !- Sun Exposure
  WindExposed,                            !- Wind Exposure
  ,                                       !- View Factor to Ground
  ,                                       !- Number of Vertices
  11.129722368505, 2.78243059212624, 1.39121529606312, !- X,Y,Z Vertex 1 {m}
  11.129722368505, 0, 0,                  !- X,Y,Z Vertex 2 {m}
  11.129722368505, 5.56486118425249, 0;   !- X,Y,Z Vertex 3 {m}

OS:Space,
  {877fc016-9dc1-457e-bcdd-ecf756a5e1b5}, !- Handle
  finished attic space,                   !- Name
  ,                                       !- Space Type Name
  ,                                       !- Default Construction Set Name
  ,                                       !- Default Schedule Set Name
  -0,                                     !- Direction of Relative North {deg}
  0,                                      !- X Origin {m}
  0,                                      !- Y Origin {m}
  4.8768,                                 !- Z Origin {m}
  ,                                       !- Building Story Name
  {50a045e0-962b-44ac-9fcf-272534bab520}, !- Thermal Zone Name
  ,                                       !- Part of Total Floor Area
  ,                                       !- Design Specification Outdoor Air Object Name
  {bc75581c-71ad-492d-9bb8-23c4aa1fc66d}; !- Building Unit Name

OS:BuildingUnit,
  {bc75581c-71ad-492d-9bb8-23c4aa1fc66d}, !- Handle
  unit 1,                                 !- Name
  ,                                       !- Rendering Color
  Residential,                            !- Building Unit Type
  SizingInfoRoofCavityRvalue|{b141e0bf-8722-4649-a652-fbb84c5017db}, !- Building Unit Feature Name 1
  Double,                                 !- Building Unit Feature Data Type 1
  30,                                     !- Building Unit Feature Value 1
  SizingInfoRoofCavityRvalue|{d4e038cf-c3e7-44d7-a64b-392d61872e5d}, !- Building Unit Feature Name 2
  Double,                                 !- Building Unit Feature Data Type 2
  30,                                     !- Building Unit Feature Value 2
  SizingInfoRoofRigidInsRvalue|{b141e0bf-8722-4649-a652-fbb84c5017db}, !- Building Unit Feature Name 3
  Double,                                 !- Building Unit Feature Data Type 3
  0,                                      !- Building Unit Feature Value 3
  SizingInfoRoofRigidInsRvalue|{d4e038cf-c3e7-44d7-a64b-392d61872e5d}, !- Building Unit Feature Name 4
  Double,                                 !- Building Unit Feature Data Type 4
  0;                                      !- Building Unit Feature Value 4

OS:Material,
  {8fed4a34-86f1-4a62-8157-cc57fe3ccc74}, !- Handle
  RoofIns,                                !- Name
  Rough,                                  !- Roughness
  0.23495,                                !- Thickness {m}
  0.0475515528361455,                     !- Conductivity {W/m-K}
  78.3382951303521,                       !- Density {kg/m3}
  1123.40734689705;                       !- Specific Heat {J/kg-K}

OS:Material,
  {e247258c-d95a-4716-89f8-d1c913644e38}, !- Handle
  ResRoofSheathing,                       !- Name
  Rough,                                  !- Roughness
  0.01905,                                !- Thickness {m}
  0.115440002246972,                      !- Conductivity {W/m-K}
  512.590827966724,                       !- Density {kg/m3}
  1214.172;                               !- Specific Heat {J/kg-K}

OS:Material,
  {a8fa2e78-1fef-4d9d-a5c7-06513a0f98e1}, !- Handle