
OS:Version,
  {cbb16328-cc26-4c56-ac5a-399595b1f95d}, !- Handle
  1.3.1;                                  !- Version Identifier

OS:Construction,
  {8e5ef561-546f-431e-8455-60a7f8026470}, !- Handle
  ExtInsFinWall,                          !- Name
  ,                                       !- Surface Rendering Name
  {0563a154-49fd-4269-99d4-f9587ae00f94}, !- Layer 1
  {7e8060d4-ee4b-4987-9656-da678a1324a7}, !- Layer 2
  {7b9a86ec-3b8a-4c7d-8fe0-d2862c411ffd}, !- Layer 3
  {23cd0027-731a-4560-8c1c-5eccc3400858}, !- Layer 4
  {68858053-6ff8-419e-8396-f3e3d77fbbeb}, !- Layer 5
  {721e0bc8-eff2-4965-ba52-160da54f23a7}; !- Layer 6

OS:Material,
  {0563a154-49fd-4269-99d4-f9587ae00f94}, !- Handle
  Exterior_Finish_Vinyl_Light,            !- Name
  Rough,                                  !- Roughness
  0.009525,                               !- Thickness {m}
  0.089435,                               !- Conductivity {W/m-K}
  177.822,                                !- Density {kg/m3}
  1046.75,                                !- Specific Heat {J/kg-K}
  0.9,                                    !- Thermal Absorptance
  0.3,                                    !- Solar Absorptance
  0.3;                                    !- Visible Absorptance

OS:Material,
  {7e8060d4-ee4b-4987-9656-da678a1324a7}, !- Handle
  Plywood_1_2in,                          !- Name
  Rough,                                  !- Roughness
  0.0127,                                 !- Thickness {m}
  0.1154577,                              !- Conductivity {W/m-K}
  512.64,                                 !- Density {kg/m3}
  1214.23;                                !- Specific Heat {J/kg-K}

OS:Material,
  {721e0bc8-eff2-4965-ba52-160da54f23a7}, !- Handle
  GypsumBoard_1_2in,                      !- Name
  Rough,                                  !- Roughness
  0.0127,                                 !- Thickness {m}
  0.1602906,                              !- Conductivity {W/m-K}
  801,                                    !- Density {kg/m3}
  837.4;                                  !- Specific Heat {J/kg-K}

OS:Material,
  {7b9a86ec-3b8a-4c7d-8fe0-d2862c411ffd}, !- Handle
  StudandCavity,                          !- Name
  Rough,                                  !- Roughness
  0.0889,                                 !- Thickness {m}
  0.0474350163340529,                     !- Conductivity {W/m-K}
  148.39326,                              !- Density {kg/m3}
  1174.03696966425;                       !- Specific Heat {J/kg-K}

OS:Material,
  {23cd0027-731a-4560-8c1c-5eccc3400858}, !- Handle
  Cavity,                                 !- Name
  Rough,                                  !- Roughness
  0.0889,                                 !- Thickness {m}
  0.0465417335833333,                     !- Conductivity {W/m-K}
  119.206822499999,                       !- Density {kg/m3}
  1160.18704077004;                       !- Specific Heat {J/kg-K}

OS:Material,
  {68858053-6ff8-419e-8396-f3e3d77fbbeb}, !- Handle
  StudandCavity 1,                        !- Name
  Rough,                                  !- Roughness
  0.0889,                                 !- Thickness {m}
  0.0474350163340529,                     !- Conductivity {W/m-K}
  148.39326,                              !- Density {kg/m3}
  1174.03696966425;                       !- Specific Heat {J/kg-K}

