
OS:Version,
  {2b7e04a8-44eb-49e2-9799-ad624438f238}, !- Handle
  1.3.1;                                  !- Version Identifier

OS:Construction,
  {393e7bdf-2e7e-4dae-a016-3c475d8eed0a}, !- Handle
  ExtInsFinWall,                          !- Name
  ,                                       !- Surface Rendering Name
  {6502a72f-8ffd-4c4a-93d4-06f4e95ffd1d}, !- Layer 1
  {f949f33d-1745-47a9-adef-befdab7daa11}, !- Layer 2
  {3bdb8497-f021-44df-bbf3-5d1d9c7d0ab9}, !- Layer 3
  {3a5f5edc-74fd-4bbd-9816-176df228fffc}, !- Layer 4
  {ea2809d3-1f5c-49bb-a1df-c4d95a49bc19}, !- Layer 5
  {a1d67cec-37eb-49e4-85f3-67be62efaec6}; !- Layer 6

OS:Material,
  {6502a72f-8ffd-4c4a-93d4-06f4e95ffd1d}, !- Handle
  Exterior_Finish_Vinyl_Light,            !- Name
  Rough,                                  !- Roughness
  0.009525,                               !- Thickness {m}
  0.089435,                               !- Conductivity {W/m-K}
  177.822,                                !- Density {kg/m3}
  1046.75,                                !- Specific Heat {J/kg-K}
  0.9,                                    !- Thermal Absorptance
  0.3,                                    !- Solar Absorptance
  0.3;                                    !- Visible Absorptance

OS:Material,
  {f949f33d-1745-47a9-adef-befdab7daa11}, !- Handle
  Plywood_1_2in,                          !- Name
  Rough,                                  !- Roughness
  0.0127,                                 !- Thickness {m}
  0.1154577,                              !- Conductivity {W/m-K}
  512.64,                                 !- Density {kg/m3}
  1214.23;                                !- Specific Heat {J/kg-K}

OS:Material,
  {a1d67cec-37eb-49e4-85f3-67be62efaec6}, !- Handle
  GypsumBoard_1_2in,                      !- Name
  Rough,                                  !- Roughness
  0.0127,                                 !- Thickness {m}
  0.1602906,                              !- Conductivity {W/m-K}
  801,                                    !- Density {kg/m3}
  837.4;                                  !- Specific Heat {J/kg-K}

OS:Material,
  {3bdb8497-f021-44df-bbf3-5d1d9c7d0ab9}, !- Handle
  StudandCavity,                          !- Name
  Rough,                                  !- Roughness
  0.0889,                                 !- Thickness {m}
  0.0466208548261082,                     !- Conductivity {W/m-K}
  148.39326,                              !- Density {kg/m3}
  1174.03696966425;                       !- Specific Heat {J/kg-K}

OS:Material,
  {3a5f5edc-74fd-4bbd-9816-176df228fffc}, !- Handle
  Cavity,                                 !- Name
  Rough,                                  !- Roughness
  0.0889,                                 !- Thickness {m}
  0.0465417335833333,                     !- Conductivity {W/m-K}
  119.206822499999,                       !- Density {kg/m3}
  1160.18704077004;                       !- Specific Heat {J/kg-K}

OS:Material,
  {ea2809d3-1f5c-49bb-a1df-c4d95a49bc19}, !- Handle
  StudandCavity 1,                        !- Name
  Rough,                                  !- Roughness
  0.0889,                                 !- Thickness {m}
  0.0466208548261082,                     !- Conductivity {W/m-K}
  148.39326,                              !- Density {kg/m3}
  1174.03696966425;                       !- Specific Heat {J/kg-K}

