
OS:Version,
  {3b72412a-04b0-4a7b-8580-1cab721875d7}, !- Handle
  1.3.1;                                  !- Version Identifier

OS:Construction,
  {c8de5d78-ae45-4ccb-9e69-eca208314ee9}, !- Handle
  GrndInsUnfinCSWall,                     !- Name
  ,                                       !- Surface Rendering Name
  {52414bf5-208f-48b4-afbd-408681889fcb}, !- Layer 1
  {08151b1f-edab-43a7-8110-17cc5e74361c}, !- Layer 2
  {749b1aa0-ac1b-44d1-a969-40b35513fa27}; !- Layer 3

OS:Material,
  {52414bf5-208f-48b4-afbd-408681889fcb}, !- Handle
  Soil_12in,                              !- Name
  Rough,                                  !- Roughness
  0.3048,                                 !- Thickness {m}
  1.731,                                  !- Conductivity {W/m-K}
  1842.3,                                 !- Density {kg/m3}
  418.7;                                  !- Specific Heat {J/kg-K}

OS:Material,
  {08151b1f-edab-43a7-8110-17cc5e74361c}, !- Handle
  Concrete_8in,                           !- Name
  Rough,                                  !- Roughness
  0.2032,                                 !- Thickness {m}
  1.3114056,                              !- Conductivity {W/m-K}
  2242.79999999999,                       !- Density {kg/m3}
  837.4;                                  !- Specific Heat {J/kg-K}

OS:Material,
  {749b1aa0-ac1b-44d1-a969-40b35513fa27}, !- Handle
  CWallIns,                               !- Name
  Rough,                                  !- Roughness
  0.06096,                                !- Thickness {m}
  0.02885,                                !- Conductivity {W/m-K}
  32.04,                                  !- Density {kg/m3}
  1214.23;                                !- Specific Heat {J/kg-K}

