
OS:Version,
  {3db074a3-dafb-4f97-b17a-d802c77a0a60}, !- Handle
  1.3.1;                                  !- Version Identifier

OS:ElectricEquipment:Definition,
  {31e47aa0-89d6-4423-9f1f-7165e4c6ded3}, !- Handle
  25 cu ft. EF = 19.8 side freezer,       !- Name
  EquipmentLevel,                         !- Design Level Calculation Method
  85.4854658133608,                       !- Design Level {W}
  ,                                       !- Watts per Space Floor Area {W/m2}
  ,                                       !- Watts per Person {W/person}
  0,                                      !- Fraction Latent
  0,                                      !- Fraction Radiant
  0;                                      !- Fraction Lost

OS:Schedule:Ruleset,
  {b27166da-3dca-402f-801e-e251fd7e7116}, !- Handle
  refrigerator_ruleset,                   !- Name
  ,                                       !- Schedule Type Limits Name
  {bef98b63-f2ff-4a2c-80e4-b49c69ac45fd}, !- Default Day Schedule Name
  {22cea422-cd6b-4045-931f-a18371430e82}, !- Summer Design Day Schedule Name
  {a65df3c6-b657-4cf6-9161-514dedf9019d}; !- Winter Design Day Schedule Name

OS:Schedule:Day,
  {bef98b63-f2ff-4a2c-80e4-b49c69ac45fd}, !- Handle
  Schedule Day 1,                         !- Name
  ,                                       !- Schedule Type Limits Name
  ,                                       !- Interpolate to Timestep
  24,                                     !- Hour 1
  0,                                      !- Minute 1
  0;                                      !- Value Until Time 1

OS:Schedule:Rule,
  {553b8fbd-27f6-4036-8b26-0b30cbd61771}, !- Handle
  fridge_weekday_ruleset1,                !- Name
  {b27166da-3dca-402f-801e-e251fd7e7116}, !- Schedule Ruleset Name
  23,                                     !- Rule Order
  {fa8bed0e-5997-4062-8825-1878f68df4d3}, !- Day Schedule Name
  No,                                     !- Apply Sunday
  Yes,                                    !- Apply Monday
  Yes,                                    !- Apply Tuesday
  Yes,                                    !- Apply Wednesday
  Yes,                                    !- Apply Thursday
  Yes,                                    !- Apply Friday
  No,                                     !- Apply Saturday
  ,                                       !- Apply Holiday
  DateRange,                              !- Date Specification Type
  1,                                      !- Start Month
  1,                                      !- Start Day
  1,                                      !- End Month
  31;                                     !- End Day

OS:Schedule:Day,
  {fa8bed0e-5997-4062-8825-1878f68df4d3}, !- Handle
  RefrigeratorWinter,                     !- Name
  ,                                       !- Schedule Type Limits Name
  ,                                       !- Interpolate to Timestep
  1,                                      !- Hour 1
  0,                                      !- Minute 1
  0.610948905109489,                      !- Value Until Time 1
  2,                                      !- Hour 2
  0,                                      !- Minute 2
  0.595675182481752,                      !- Value Until Time 2
  3,                                      !- Hour 3
  0,                                      !- Minute 3
  0.580401459854014,                      !- Value Until Time 3
  4,                                      !- Hour 4
  0,                                      !- Minute 4
  0.565127737226277,                      !- Value Until Time 4
  5,                                      !- Hour 5
  0,                                      !- Minute 5
  0.54985401459854,                       !- Value Until Time 5
  6,                                      !- Hour 6
  0,                                      !- Minute 6
  0.54985401459854,                       !- Value Until Time 6
  7,                                      !- Hour 7
  0,                                      !- Minute 7
  0.580401459854014,                      !- Value Until Time 7
  8,                                      !- Hour 8
  0,                                      !- Minute 8
  0.610948905109489,                      !- Value Until Time 8
  9,                                      !- Hour 9
  0,                                      !- Minute 9
  0.626222627737226,                      !- Value Until Time 9
  10,                                     !- Hour 10
  0,                                      !- Minute 10
  0.626222627737226,                      !- Value Until Time 10
  11,                                     !- Hour 11
  0,                                      !- Minute 11
  0.610948905109489,                      !- Value Until Time 11
  12,                                     !- Hour 12
  0,                                      !- Minute 12
  0.610948905109489,                      !- Value Until Time 12
  13,                                     !- Hour 13
  0,                                      !- Minute 13
  0.641496350364963,                      !- Value Until Time 13
  14,                                     !- Hour 14
  0,                                      !- Minute 14
  0.641496350364963,                      !- Value Until Time 14
  15,                                     !- Hour 15
  0,                                      !- Minute 15
  0.641496350364963,                      !- Value Until Time 15
  16,                                     !- Hour 16
  0,                                      !- Minute 16
  0.626222627737226,                      !- Value Until Time 16
  17,                                     !- Hour 17
  0,                                      !- Minute 17
  0.672043795620438,                      !- Value Until Time 17
  18,                                     !- Hour 18
  0,                                      !- Minute 18
  0.733138686131387,                      !- Value Until Time 18
  19,                                     !- Hour 19
  0,                                      !- Minute 19
  0.763686131386861,                      !- Value Until Time 19
  20,                                     !- Hour 20
  0,                                      !- Minute 20
  0.733138686131387,                      !- Value Until Time 20
  21,                                     !- Hour 21
  0,                                      !- Minute 21
  0.717864963503649,                      !- Value Until Time 21
  22,                                     !- Hour 22
  0,                                      !- Minute 22
  0.702591240875912,                      !- Value Until Time 22
  23,                                     !- Hour 23
  0,                                      !- Minute 23
  0.672043795620438,                      !- Value Until Time 23
  24,                                     !- Hour 24
  0,                                      !- Minute 24
  0.626222627737226;                      !- Value Until Time 24

OS:Schedule:Rule,
  {d6a84929-6f4c-4d85-8772-709f381fcbae}, !- Handle
  fridge_weekend_ruleset1,                !- Name
  {b27166da-3dca-402f-801e-e251fd7e7116}, !- Schedule Ruleset Name
  22,                                     !- Rule Order
  {2286da97-c87f-4071-aead-986491964fd7}, !- Day Schedule Name
  Yes,                                    !- Apply Sunday
  No,                                     !- Apply Monday
  No,                                     !- Apply Tuesday
  No,                                     !- Apply Wednesday
  No,                                     !- Apply Thursday
  No,                                     !- Apply Friday
  Yes,                                    !- Apply Saturday
  ,                                       !- Apply Holiday
  DateRange,                              !- Date Specification Type
  1,                                      !- Start Month
  1,                                      !- Start Day
  1,                                      !- End Month
  31;                                     !- End Day

OS:Schedule:Day,
  {2286da97-c87f-4071-aead-986491964fd7}, !- Handle
  RefrigeratorWeekend1,                   !- Name
  ,                                       !- Schedule Type Limits Name
  ,                                       !- Interpolate to Timestep
  1,                                      !- Hour 1
  0,                                      !- Minute 1
  0.610948905109489,                      !- Value Until Time 1
  2,                                      !- Hour 2
  0,                                      !- Minute 2
  0.595675182481752,                      !- Value Until Time 2
  3,                                      !- Hour 3
  0,                                      !- Minute 3
  0.580401459854014,                      !- Value Until Time 3
  4,                                      !- Hour 4
  0,                                      !- Minute 4
  0.565127737226277,                      !- Value Until Time 4
  5,                                      !- Hour 5
  0,                                      !- Minute 5
  0.54985401459854,                       !- Value Until Time 5
  6,                                      !- Hour 6
  0,                                      !- Minute 6
  0.54985401459854,                       !- Value Until Time 6
  7,                                      !- Hour 7
  0,                                      !- Minute 7
  0.580401459854014,                      !- Value Until Time 7
  8,                                      !- Hour 8
  0,                                      !- Minute 8
  0.610948905109489,                      !- Value Until Time 8
  9,                                      !- Hour 9
  0,                                      !- Minute 9
  0.626222627737226,                      !- Value Until Time 9
  10,                                     !- Hour 10
  0,                                      !- Minute 10
  0.626222627737226,                      !- Value Until Time 10
  11,                                     !- Hour 11
  0,                                      !- Minute 11
  0.610948905109489,                      !- Value Until Time 11
  12,                                     !- Hour 12
  0,                                      !- Minute 12
  0.610948905109489,                      !- Value Until Time 12
  13,                                     !- Hour 13
  0,                                      !- Minute 13
  0.641496350364963,                      !- Value Until Time 13
  14,                                     !- Hour 14
  0,                                      !- Minute 14
  0.641496350364963,                      !- Value Until Time 14
  15,                                     !- Hour 15
  0,                                      !- Minute 15
  0.641496350364963,                      !- Value Until Time 15
  16,                                     !- Hour 16
  0,                                      !- Minute 16
  0.626222627737226,                      !- Value Until Time 16
  17,                                     !- Hour 17
  0,                                      !- Minute 17
  0.672043795620438,                      !- Value Until Time 17
  18,                                     !- Hour 18
  0,                                      !- Minute 18
  0.733138686131387,                      !- Value Until Time 18
  19,                                     !- Hour 19
  0,                                      !- Minute 19
  0.763686131386861,                      !- Value Until Time 19
  20,                                     !- Hour 20
  0,                                      !- Minute 20
  0.733138686131387,                      !- Value Until Time 20
  21,                                     !- Hour 21
  0,                                      !- Minute 21
  0.717864963503649,                      !- Value Until Time 21
  22,                                     !- Hour 22
  0,                                      !- Minute 22
  0.702591240875912,                      !- Value Until Time 22
  23,                                     !- Hour 23
  0,                                      !- Minute 23
  0.672043795620438,                      !- Value Until Time 23
  24,                                     !- Hour 24
  0,                                      !- Minute 24
  0.626222627737226;                      !- Value Until Time 24

OS:Schedule:Rule,
  {4fc8c1e4-ab8a-4f6d-acea-f20b1ee26dc0}, !- Handle
  fridge_weekday_ruleset2,                !- Name
  {b27166da-3dca-402f-801e-e251fd7e7116}, !- Schedule Ruleset Name
  21,                                     !- Rule Order
  {16ef602b-2496-439a-9902-f215c5af9b42}, !- Day Schedule Name
  No,                                     !- Apply Sunday
  Yes,                                    !- Apply Monday
  Yes,                                    !- Apply Tuesday
  Yes,                                    !- Apply Wednesday
  Yes,                                    !- Apply Thursday
  Yes,                                    !- Apply Friday
  No,                                     !- Apply Saturday
  ,                                       !- Apply Holiday
  DateRange,                              !- Date Specification Type
  2,                                      !- Start Month
  1,                                      !- Start Day
  2,                                      !- End Month
  28;                                     !- End Day

OS:Schedule:Day,
  {16ef602b-2496-439a-9902-f215c5af9b42}, !- Handle
  RefrigeratorWeekday2,                   !- Name
  ,                                       !- Schedule Type Limits Name
  ,                                       !- Interpolate to Timestep
  1,                                      !- Hour 1
  0,                                      !- Minute 1
  0.60948905109489,                       !- Value Until Time 1
  2,                                      !- Hour 2
  0,                                      !- Minute 2
  0.594251824817518,                      !- Value Until Time 2
  3,                                      !- Hour 3
  0,                                      !- Minute 3
  0.579014598540146,                      !- Value Until Time 3
  4,                                      !- Hour 4
  0,                                      !- Minute 4
  0.563777372262774,                      !- Value Until Time 4
  5,                                      !- Hour 5
  0,                                      !- Minute 5
  0.548540145985401,                      !- Value Until Time 5
  6,                                      !- Hour 6
  0,                                      !- Minute 6
  0.548540145985401,                      !- Value Until Time 6
  7,                                      !- Hour 7
  0,                                      !- Minute 7
  0.579014598540146,                      !- Value Until Time 7
  8,                                      !- Hour 8
  0,                                      !- Minute 8
  0.60948905109489,                       !- Value Until Time 8
  9,                                      !- Hour 9
  0,                                      !- Minute 9
  0.624726277372263,                      !- Value Until Time 9
  10,                                     !- Hour 10
  0,                                      !- Minute 10
  0.624726277372263,                      !- Value Until Time 10
  11,                                     !- Hour 11
  0,                                      !- Minute 11
  0.60948905109489,                       !- Value Until Time 11
  12,                                     !- Hour 12
  0,                                      !- Minute 12
  0.60948905109489,                       !- Value Until Time 12
  13,                                     !- Hour 13
  0,                                      !- Minute 13
  0.639963503649635,                      !- Value Until Time 13
  14,                                     !- Hour 14
  0,                                      !- Minute 14
  0.639963503649635,                      !- Value Until Time 14
  15,                                     !- Hour 15
  0,                                      !- Minute 15
  0.639963503649635,                      !- Value Until Time 15
  16,                                     !- Hour 16
  0,                                      !- Minute 16
  0.624726277372263,                      !- Value Until Time 16
  17,                                     !- Hour 17
  0,                                      !- Minute 17
  0.670437956204379,                      !- Value Until Time 17
  18,                                     !- Hour 18
  0,                                      !- Minute 18
  0.731386861313868,                      !- Value Until Time 18
  19,                                     !- Hour 19
  0,                                      !- Minute 19
  0.761861313868613,                      !- Value Until Time 19
  20,                                     !- Hour 20
  0,                                      !- Minute 20
  0.731386861313868,                      !- Value Until Time 20
  21,                                     !- Hour 21
  0,                                      !- Minute 21
  0.716149635036496,                      !- Value Until Time 21
  22,                                     !- Hour 22
  0,                                      !- Minute 22
  0.700912408759124,                      !- Value Until Time 22
  23,                                     !- Hour 23
  0,                                      !- Minute 23
  0.670437956204379,                      !- Value Until Time 23
  24,                                     !- Hour 24
  0,                                      !- Minute 24
  0.624726277372263;                      !- Value Until Time 24

OS:Schedule:Rule,
  {ecb8b7a2-3526-4193-afcf-26ccda020eb7}, !- Handle
  fridge_weekend_ruleset2,                !- Name
  {b27166da-3dca-402f-801e-e251fd7e7116}, !- Schedule Ruleset Name
  20,                                     !- Rule Order
  {70b67b59-b977-47f1-ac0f-1d0341f408c0}, !- Day Schedule Name
  Yes,                                    !- Apply Sunday
  No,                                     !- Apply Monday
  No,                                     !- Apply Tuesday
  No,                                     !- Apply Wednesday
  No,                                     !- Apply Thursday
  No,                                     !- Apply Friday
  Yes,                                    !- Apply Saturday
  ,                                       !- Apply Holiday
  DateRange,                              !- Date Specification Type
  2,                                      !- Start Month
  1,                                      !- Start Day
  2,                                      !- End Month
  28;                                     !- End Day

OS:Schedule:Day,
  {70b67b59-b977-47f1-ac0f-1d0341f408c0}, !- Handle
  RefrigeratorWeekend2,                   !- Name
  ,                                       !- Schedule Type Limits Name
  ,                                       !- Interpolate to Timestep
  1,                                      !- Hour 1
  0,                                      !- Minute 1
  0.60948905109489,                       !- Value Until Time 1
  2,                                      !- Hour 2
  0,                                      !- Minute 2
  0.594251824817518,                      !- Value Until Time 2
  3,                                      !- Hour 3
  0,                                      !- Minute 3
  0.579014598540146,                      !- Value Until Time 3
  4,                                      !- Hour 4
  0,                                      !- Minute 4
  0.563777372262774,                      !- Value Until Time 4
  5,                                      !- Hour 5
  0,                                      !- Minute 5
  0.548540145985401,                      !- Value Until Time 5
  6,                                      !- Hour 6
  0,                                      !- Minute 6
  0.548540145985401,                      !- Value Until Time 6
  7,                                      !- Hour 7
  0,                                      !- Minute 7
  0.579014598540146,                      !- Value Until Time 7
  8,                                      !- Hour 8
  0,                                      !- Minute 8
  0.60948905109489,                       !- Value Until Time 8
  9,                                      !- Hour 9
  0,                                      !- Minute 9
  0.624726277372263,                      !- Value Until Time 9
  10,                                     !- Hour 10
  0,                                      !- Minute 10
  0.624726277372263,                      !- Value Until Time 10
  11,                                     !- Hour 11
  0,                                      !- Minute 11
  0.60948905109489,                       !- Value Until Time 11
  12,                                     !- Hour 12
  0,                                      !- Minute 12
  0.60948905109489,                       !- Value Until Time 12
  13,                                     !- Hour 13
  0,                                      !- Minute 13
  0.639963503649635,                      !- Value Until Time 13
  14,                                     !- Hour 14
  0,                                      !- Minute 14
  0.639963503649635,                      !- Value Until Time 14
  15,                                     !- Hour 15
  0,                                      !- Minute 15
  0.639963503649635,                      !- Value Until Time 15
  16,                                     !- Hour 16
  0,                                      !- Minute 16
  0.624726277372263,                      !- Value Until Time 16
  17,                                     !- Hour 17
  0,                                      !- Minute 17
  0.670437956204379,                      !- Value Until Time 17
  18,                                     !- Hour 18
  0,                                      !- Minute 18
  0.731386861313868,                      !- Value Until Time 18
  19,                                     !- Hour 19
  0,                                      !- Minute 19
  0.761861313868613,                      !- Value Until Time 19
  20,                                     !- Hour 20
  0,                                      !- Minute 20
  0.731386861313868,                      !- Value Until Time 20
  21,                                     !- Hour 21
  0,                                      !- Minute 21
  0.716149635036496,                      !- Value Until Time 21
  22,                                     !- Hour 22
  0,                                      !- Minute 22
  0.700912408759124,                      !- Value Until Time 22
  23,                                     !- Hour 23
  0,                                      !- Minute 23
  0.670437956204379,                      !- Value Until Time 23
  24,                                     !- Hour 24
  0,                                      !- Minute 24
  0.624726277372263;                      !- Value Until Time 24

OS:Schedule:Rule,
  {32bf350f-8f0c-4d84-a1c6-599d41f2993c}, !- Handle
  fridge_weekday_ruleset3,                !- Name
  {b27166da-3dca-402f-801e-e251fd7e7116}, !- Schedule Ruleset Name
  19,                                     !- Rule Order
  {a7b1be5c-0913-40cb-b871-d03d8b4616c4}, !- Day Schedule Name
  No,                                     !- Apply Sunday
  Yes,                                    !- Apply Monday
  Yes,                                    !- Apply Tuesday
  Yes,                                    !- Apply Wednesday
  Yes,                                    !- Apply Thursday
  Yes,                                    !- Apply Friday
  No,                                     !- Apply Saturday
  ,                                       !- Apply Holiday
  DateRange,                              !- Date Specification Type
  3,                                      !- Start Month
  1,                                      !- Start Day
  3,                                      !- End Month
  31;                                     !- End Day

OS:Schedule:Day,
  {a7b1be5c-0913-40cb-b871-d03d8b4616c4}, !- Handle
  RefrigeratorWeekday3,                   !- Name
  ,                                       !- Schedule Type Limits Name
  ,                                       !- Interpolate to Timestep
  1,                                      !- Hour 1
  0,                                      !- Minute 1
  0.791240875912409,                      !- Value Until Time 1
  2,                                      !- Hour 2
  0,                                      !- Minute 2
  0.771459854014598,                      !- Value Until Time 2
  3,                                      !- Hour 3
  0,                                      !- Minute 3
  0.751678832116788,                      !- Value Until Time 3
  4,                                      !- Hour 4
  0,                                      !- Minute 4
  0.731897810218978,                      !- Value Until Time 4
  5,                                      !- Hour 5
  0,                                      !- Minute 5
  0.712116788321168,                      !- Value Until Time 5
  6,                                      !- Hour 6
  0,                                      !- Minute 6
  0.712116788321168,                      !- Value Until Time 6
  7,                                      !- Hour 7
  0,                                      !- Minute 7
  0.751678832116788,                      !- Value Until Time 7
  8,                                      !- Hour 8
  0,                                      !- Minute 8
  0.791240875912409,                      !- Value Until Time 8
  9,                                      !- Hour 9
  0,                                      !- Minute 9
  0.811021897810219,                      !- Value Until Time 9
  10,                                     !- Hour 10
  0,                                      !- Minute 10
  0.811021897810219,                      !- Value Until Time 10
  11,                                     !- Hour 11
  0,                                      !- Minute 11
  0.791240875912409,                      !- Value Until Time 11
  12,                                     !- Hour 12
  0,                                      !- Minute 12
  0.791240875912409,                      !- Value Until Time 12
  13,                                     !- Hour 13
  0,                                      !- Minute 13
  0.830802919708029,                      !- Value Until Time 13
  14,                                     !- Hour 14
  0,                                      !- Minute 14
  0.830802919708029,                      !- Value Until Time 14
  15,                                     !- Hour 15
  0,                                      !- Minute 15
  0.830802919708029,                      !- Value Until Time 15
  16,                                     !- Hour 16
  0,                                      !- Minute 16
  0.811021897810219,                      !- Value Until Time 16
  17,                                     !- Hour 17
  0,                                      !- Minute 17
  0.87036496350365,                       !- Value Until Time 17
  18,                                     !- Hour 18
  0,                                      !- Minute 18
  0.94948905109489,                       !- Value Until Time 18
  19,                                     !- Hour 19
  0,                                      !- Minute 19
  0.989051094890511,                      !- Value Until Time 19
  20,                                     !- Hour 20
  0,                                      !- Minute 20
  0.94948905109489,                       !- Value Until Time 20
  21,                                     !- Hour 21
  0,                                      !- Minute 21
  0.92970802919708,                       !- Value Until Time 21
  22,                                     !- Hour 22
  0,                                      !- Minute 22
  0.90992700729927,                       !- Value Until Time 22
  23,                                     !- Hour 23
  0,                                      !- Minute 23
  0.87036496350365,                       !- Value Until Time 23
  24,                                     !- Hour 24
  0,                                      !- Minute 24
  0.811021897810219;                      !- Value Until Time 24

OS:Schedule:Rule,
  {de0afa26-4767-41fd-a8b3-30034dc2e116}, !- Handle
  fridge_weekend_ruleset3,                !- Name
  {b27166da-3dca-402f-801e-e251fd7e7116}, !- Schedule Ruleset Name
  18,                                     !- Rule Order
  {256bdb77-e3fe-40e1-8aef-e6d362a2608e}, !- Day Schedule Name
  Yes,                                    !- Apply Sunday
  No,                                     !- Apply Monday
  No,                                     !- Apply Tuesday
  No,                                     !- Apply Wednesday
  No,                                     !- Apply Thursday
  No,                                     !- Apply Friday
  Yes,                                    !- Apply Saturday
  ,                                       !- Apply Holiday
  DateRange,                              !- Date Specification Type
  3,                                      !- Start Month
  1,                                      !- Start Day
  3,                                      !- End Month
  31;                                     !- End Day

OS:Schedule:Day,
  {256bdb77-e3fe-40e1-8aef-e6d362a2608e}, !- Handle