
OS:Version,
  {0c3e4330-854d-4e37-8a0e-e99b29a3d637}, !- Handle
  1.3.1;                                  !- Version Identifier

OS:Construction,
  {85b1153c-d9e9-4d6c-8ad7-e5afa8d5a765}, !- Handle
  ExtInsFinWall,                          !- Name
  ,                                       !- Surface Rendering Name
  {9fc23dea-a6a7-495b-90cb-80c3f342dd0d}, !- Layer 1
  {c00b268e-50c2-42bd-b92d-86ffa4a2971d}, !- Layer 2
  {169ba160-c656-4dde-8cba-6ae188863017}, !- Layer 3
  {f85c3708-52e0-4e6e-aedd-0a59e0f6c3ae}; !- Layer 4

OS:Material,
  {9fc23dea-a6a7-495b-90cb-80c3f342dd0d}, !- Handle
  Exterior_Finish_Vinyl_Light,            !- Name
  Rough,                                  !- Roughness
  0.009525,                               !- Thickness {m}
  0.089435,                               !- Conductivity {W/m-K}
  177.822,                                !- Density {kg/m3}
  1046.75,                                !- Specific Heat {J/kg-K}
  0.9,                                    !- Thermal Absorptance
  0.3,                                    !- Solar Absorptance
  0.3;                                    !- Visible Absorptance

OS:Material,
  {f85c3708-52e0-4e6e-aedd-0a59e0f6c3ae}, !- Handle
  GypsumBoard_1_2in,                      !- Name
  Rough,                                  !- Roughness
  0.0127,                                 !- Thickness {m}
  0.1602906,                              !- Conductivity {W/m-K}
  801,                                    !- Density {kg/m3}
  837.4;                                  !- Specific Heat {J/kg-K}

OS:Material,
  {c00b268e-50c2-42bd-b92d-86ffa4a2971d}, !- Handle
  CMU,                                    !- Name
  Rough,                                  !- Roughness
  0.3048,                                 !- Thickness {m}
  0.377152820775389,                      !- Conductivity {W/m-K}
  764.28216,                              !- Density {kg/m3}
  856.609578267795;                       !- Specific Heat {J/kg-K}

OS:Material,
  {169ba160-c656-4dde-8cba-6ae188863017}, !- Handle
  Furring,                                !- Name
  Rough,                                  !- Roughness
  0.1397,                                 !- Thickness {m}
  0.0519641842131579,                     !- Conductivity {W/m-K}
  110.3341455,                            !- Density {kg/m3}
  1154.52431712832;                       !- Specific Heat {J/kg-K}

