
OS:Version,
  {9deb7e98-00a6-46ff-9abb-0e0b371bc92e}, !- Handle
  1.3.1;                                  !- Version Identifier

OS:Construction,
  {22e97ef5-bec3-4093-b337-5fe8e3af3d55}, !- Handle
  ExtInsFinWall,                          !- Name
  ,                                       !- Surface Rendering Name
  {f26d03e4-3ca0-434f-9708-cdbcd07e7787}, !- Layer 1
  {e89c5bd2-95d0-4484-9c21-debf8267c602}, !- Layer 2
  {b5ad9fc3-3e5a-482e-adaa-bc8e8e444bfe}, !- Layer 3
  {3f22f607-9f3b-4fc3-b81f-82ea10b9a405}; !- Layer 4

OS:Material,
  {f26d03e4-3ca0-434f-9708-cdbcd07e7787}, !- Handle
  Exterior_Finish_Vinyl_Light,            !- Name
  Rough,                                  !- Roughness
  0.009525,                               !- Thickness {m}
  0.089435,                               !- Conductivity {W/m-K}
  177.822,                                !- Density {kg/m3}
  1046.75,                                !- Specific Heat {J/kg-K}
  0.9,                                    !- Thermal Absorptance
  0.3,                                    !- Solar Absorptance
  0.3;                                    !- Visible Absorptance

OS:Material,
  {e89c5bd2-95d0-4484-9c21-debf8267c602}, !- Handle
  Plywood_1_2in,                          !- Name
  Rough,                                  !- Roughness
  0.0127,                                 !- Thickness {m}
  0.1154577,                              !- Conductivity {W/m-K}
  512.64,                                 !- Density {kg/m3}
  1214.23;                                !- Specific Heat {J/kg-K}

OS:Material,
  {3f22f607-9f3b-4fc3-b81f-82ea10b9a405}, !- Handle
  GypsumBoard_1_2in,                      !- Name
  Rough,                                  !- Roughness
  0.0127,                                 !- Thickness {m}
  0.1602906,                              !- Conductivity {W/m-K}
  801,                                    !- Density {kg/m3}
  837.4;                                  !- Specific Heat {J/kg-K}

OS:Material,
  {b5ad9fc3-3e5a-482e-adaa-bc8e8e444bfe}, !- Handle
  StudandCavity,                          !- Name
  Rough,                                  !- Roughness
  0.1397,                                 !- Thickness {m}
  0.507065952738793,                      !- Conductivity {W/m-K}
  113.709750244224,                       !- Density {kg/m3}
  1212.51971804783;                       !- Specific Heat {J/kg-K}

