
OS:Version,
  {1f063f59-5814-4372-a353-15344f8d3672}, !- Handle
  1.3.1;                                  !- Version Identifier

OS:Construction,
  {4fb2f3ea-3df9-4e8a-8115-8d76d89c94bc}, !- Handle
  ExtInsFinWall,                          !- Name
  ,                                       !- Surface Rendering Name
  {6d0007a8-4b91-4c76-a41b-6277ed7439bc}, !- Layer 1
  {67432aed-9401-4890-b847-ff44d8761b91}, !- Layer 2
  {b2927af8-630c-425f-9fd1-73f406a74342}, !- Layer 3
  {32fa8801-a03e-46ff-8ee0-a98b750304bc}; !- Layer 4

OS:Material,
  {6d0007a8-4b91-4c76-a41b-6277ed7439bc}, !- Handle
  Exterior_Finish_Vinyl_Light,            !- Name
  Rough,                                  !- Roughness
  0.009525,                               !- Thickness {m}
  0.089435,                               !- Conductivity {W/m-K}
  177.822,                                !- Density {kg/m3}
  1046.75,                                !- Specific Heat {J/kg-K}
  0.9,                                    !- Thermal Absorptance
  0.3,                                    !- Solar Absorptance
  0.3;                                    !- Visible Absorptance

OS:Material,
  {67432aed-9401-4890-b847-ff44d8761b91}, !- Handle
  Plywood_1_2in,                          !- Name
  Rough,                                  !- Roughness
  0.0127,                                 !- Thickness {m}
  0.1154577,                              !- Conductivity {W/m-K}
  512.64,                                 !- Density {kg/m3}
  1214.23;                                !- Specific Heat {J/kg-K}

OS:Material,
  {32fa8801-a03e-46ff-8ee0-a98b750304bc}, !- Handle
  GypsumBoard_1_2in,                      !- Name
  Rough,                                  !- Roughness
  0.0127,                                 !- Thickness {m}
  0.1602906,                              !- Conductivity {W/m-K}
  801,                                    !- Density {kg/m3}
  837.4;                                  !- Specific Heat {J/kg-K}

OS:Material,
  {b2927af8-630c-425f-9fd1-73f406a74342}, !- Handle
  StudandCavity,                          !- Name
  Rough,                                  !- Roughness
  0.0889,                                 !- Thickness {m}
  0.0602181231758692,                     !- Conductivity {W/m-K}
  162.40275,                              !- Density {kg/m3}
  1178.91670776818;                       !- Specific Heat {J/kg-K}

