
OS:Version,
  {3757c86b-a3e0-4a8c-bb52-619a82ed1df7}, !- Handle
  1.3.1;                                  !- Version Identifier

OS:Construction,
  {f46e0450-71ec-4bff-8e84-01e5b4748866}, !- Handle
  ExtInsFinWall,                          !- Name
  ,                                       !- Surface Rendering Name
  {ce9260cc-d682-4ac0-b939-4511f9a66aca}, !- Layer 1
  {adaeab9b-36b5-4fdf-aa72-c1a211a02b30}, !- Layer 2
  {870d7bb2-6eb2-4445-bbd4-a172915573de}, !- Layer 3
  {067506a0-448b-4e96-afc0-442f4a4d3a72}; !- Layer 4

OS:Material,
  {ce9260cc-d682-4ac0-b939-4511f9a66aca}, !- Handle
  Exterior_Finish_Vinyl_Light,            !- Name
  Rough,                                  !- Roughness
  0.009525,                               !- Thickness {m}
  0.089435,                               !- Conductivity {W/m-K}
  177.822,                                !- Density {kg/m3}
  1046.75,                                !- Specific Heat {J/kg-K}
  0.9,                                    !- Thermal Absorptance
  0.3,                                    !- Solar Absorptance
  0.3;                                    !- Visible Absorptance

OS:Material,
  {adaeab9b-36b5-4fdf-aa72-c1a211a02b30}, !- Handle
  Plywood_1_2in,                          !- Name
  Rough,                                  !- Roughness
  0.0127,                                 !- Thickness {m}
  0.1154577,                              !- Conductivity {W/m-K}
  512.64,                                 !- Density {kg/m3}
  1214.23;                                !- Specific Heat {J/kg-K}

OS:Material,
  {067506a0-448b-4e96-afc0-442f4a4d3a72}, !- Handle
  GypsumBoard_1_2in,                      !- Name
  Rough,                                  !- Roughness
  0.0127,                                 !- Thickness {m}
  0.1602906,                              !- Conductivity {W/m-K}
  801,                                    !- Density {kg/m3}
  837.4;                                  !- Specific Heat {J/kg-K}

OS:Material,
  {870d7bb2-6eb2-4445-bbd4-a172915573de}, !- Handle
  StudandCavity,                          !- Name
  Rough,                                  !- Roughness
  0.0889,                                 !- Thickness {m}
  0.0670829922347897,                     !- Conductivity {W/m-K}
  160.735273569433,                       !- Density {kg/m3}
  1180.27617856933;                       !- Specific Heat {J/kg-K}

