
OS:Version,
  {8b535a7e-5d73-4364-a0c0-df2a3cac71fc}, !- Handle
  1.3.1;                                  !- Version Identifier

OS:Construction,
  {f8ba1465-380d-4b22-8197-13e5205fa5a7}, !- Handle
  GrndUninsUnfinCSFloor,                  !- Name
  ,                                       !- Surface Rendering Name
  {2fdf0756-63af-4bb4-b716-0026bc0a72ed}, !- Layer 1
  {bb14949e-1ab1-41b6-ba1f-6c881d2c1ce0}; !- Layer 2

OS:Material,
  {bb14949e-1ab1-41b6-ba1f-6c881d2c1ce0}, !- Handle
  Soil_12in,                              !- Name
  Rough,                                  !- Roughness
  0.3048,                                 !- Thickness {m}
  1.731,                                  !- Conductivity {W/m-K}
  1842.3,                                 !- Density {kg/m3}
  418.7;                                  !- Specific Heat {J/kg-K}

OS:Material:NoMass,
  {2fdf0756-63af-4bb4-b716-0026bc0a72ed}, !- Handle
  CFloor_FicR_Ceiling_R_19_Closed_Cell_Spray_Foam, !- Name
  Rough,                                  !- Roughness
  176.1;                                  !- Thermal Resistance {m2-K/W}

