
OS:Version,
  {ae551f14-f8b1-4c50-a2c3-fd90574e88d4}, !- Handle
  1.3.1;                                  !- Version Identifier

OS:Construction,
  {9b1520dd-d12e-45af-baea-14bfcbc853c3}, !- Handle
  ExtInsFinWall,                          !- Name
  ,                                       !- Surface Rendering Name
  {9884ac63-1036-42d8-9936-66d36ec45440}, !- Layer 1
  {c1f12759-100f-4f7a-92af-0849eec20536}, !- Layer 2
  {541d6c4a-dab2-40dc-b717-b354ade31a56}, !- Layer 3
  {b696765d-fb50-4102-a1d1-6ae6b2069a43}; !- Layer 4

OS:Material,
  {9884ac63-1036-42d8-9936-66d36ec45440}, !- Handle
  Exterior_Finish_Vinyl_Light,            !- Name
  Rough,                                  !- Roughness
  0.009525,                               !- Thickness {m}
  0.089435,                               !- Conductivity {W/m-K}
  177.822,                                !- Density {kg/m3}
  1046.75,                                !- Specific Heat {J/kg-K}
  0.9,                                    !- Thermal Absorptance
  0.3,                                    !- Solar Absorptance
  0.3;                                    !- Visible Absorptance

OS:Material,
  {c1f12759-100f-4f7a-92af-0849eec20536}, !- Handle
  Plywood_1_2in,                          !- Name
  Rough,                                  !- Roughness
  0.0127,                                 !- Thickness {m}
  0.1154577,                              !- Conductivity {W/m-K}
  512.64,                                 !- Density {kg/m3}
  1214.23;                                !- Specific Heat {J/kg-K}

OS:Material,
  {b696765d-fb50-4102-a1d1-6ae6b2069a43}, !- Handle
  GypsumBoard_1_2in,                      !- Name
  Rough,                                  !- Roughness
  0.0127,                                 !- Thickness {m}
  0.1602906,                              !- Conductivity {W/m-K}
  801,                                    !- Density {kg/m3}
  837.4;                                  !- Specific Heat {J/kg-K}

OS:Material,
  {541d6c4a-dab2-40dc-b717-b354ade31a56}, !- Handle
  StudandCavity,                          !- Name
  Rough,                                  !- Roughness
  0.0889,                                 !- Thickness {m}
  0.06109877377162,                       !- Conductivity {W/m-K}
  160.735273569433,                       !- Density {kg/m3}
  1180.27617856933;                       !- Specific Heat {J/kg-K}

