
OS:Version,
  {501983ce-b976-4249-b9ce-2385c956de38}, !- Handle
  1.3.1;                                  !- Version Identifier

OS:Construction,
  {bb124208-d3de-4ec1-baf6-274cd2aff606}, !- Handle
  ExtInsFinWall,                          !- Name
  ,                                       !- Surface Rendering Name
  {3e2ecbae-47f1-4c99-9586-6fb22998fbbb}, !- Layer 1
  {07ac25df-9da0-4478-a310-fddb0099cd15}, !- Layer 2
  {b8562dc7-f040-4f02-83a2-e64765c20c33}, !- Layer 3
  {4920043d-f66d-4f63-a56f-b7b1d00e0bf3}; !- Layer 4

OS:Material,
  {3e2ecbae-47f1-4c99-9586-6fb22998fbbb}, !- Handle
  Exterior_Finish_Vinyl_Light,            !- Name
  Rough,                                  !- Roughness
  0.009525,                               !- Thickness {m}
  0.089435,                               !- Conductivity {W/m-K}
  177.822,                                !- Density {kg/m3}
  1046.75,                                !- Specific Heat {J/kg-K}
  0.9,                                    !- Thermal Absorptance
  0.3,                                    !- Solar Absorptance
  0.3;                                    !- Visible Absorptance

OS:Material,
  {07ac25df-9da0-4478-a310-fddb0099cd15}, !- Handle
  Plywood_1_2in,                          !- Name
  Rough,                                  !- Roughness
  0.0127,                                 !- Thickness {m}
  0.1154577,                              !- Conductivity {W/m-K}
  512.64,                                 !- Density {kg/m3}
  1214.23;                                !- Specific Heat {J/kg-K}

OS:Material,
  {4920043d-f66d-4f63-a56f-b7b1d00e0bf3}, !- Handle
  GypsumBoard_1_2in,                      !- Name
  Rough,                                  !- Roughness
  0.0127,                                 !- Thickness {m}
  0.1602906,                              !- Conductivity {W/m-K}
  801,                                    !- Density {kg/m3}
  837.4;                                  !- Specific Heat {J/kg-K}

OS:Material,
  {b8562dc7-f040-4f02-83a2-e64765c20c33}, !- Handle
  StudandCavity,                          !- Name
  Rough,                                  !- Roughness
  0.0889,                                 !- Thickness {m}
  0.0744829291443118,                     !- Conductivity {W/m-K}
  162.40275,                              !- Density {kg/m3}
  1178.91670776818;                       !- Specific Heat {J/kg-K}

