
OS:Version,
  {12e29b56-0735-410a-987d-2505aac4412a}, !- Handle
  1.3.1;                                  !- Version Identifier

OS:Construction,
  {54e6be6f-9350-4293-9958-bc18973532ce}, !- Handle
  GrndUninsUnfinCSFloor,                  !- Name
  ,                                       !- Surface Rendering Name
  {07868596-9929-45a0-8e58-b1cc95ee48f5}, !- Layer 1
  {1d5f5f35-b9a8-4dfd-a52f-7c4da37d13b2}; !- Layer 2

OS:Material,
  {1d5f5f35-b9a8-4dfd-a52f-7c4da37d13b2}, !- Handle
  Soil_12in,                              !- Name
  Rough,                                  !- Roughness
  0.3048,                                 !- Thickness {m}
  1.731,                                  !- Conductivity {W/m-K}
  1842.3,                                 !- Density {kg/m3}
  418.7;                                  !- Specific Heat {J/kg-K}

OS:Material:NoMass,
  {07868596-9929-45a0-8e58-b1cc95ee48f5}, !- Handle
  CFloor_FicR_Ceiling_R_30_Closed_Cell_Spray_Foam, !- Name
  Rough,                                  !- Roughness
  176.1;                                  !- Thermal Resistance {m2-K/W}

