
OS:Version,
  {de515d4d-c4af-44ad-8081-72f75f990b50}, !- Handle
  1.3.1;                                  !- Version Identifier

OS:Construction,
  {c7de100d-ff6d-47a5-9ac9-215e9932a414}, !- Handle
  ExtInsFinWall,                          !- Name
  ,                                       !- Surface Rendering Name
  {ad96ba35-753b-4dcc-9b88-a9c9b34487b8}, !- Layer 1
  {0160bc6d-4835-44c4-a0a4-4a823be45999}, !- Layer 2
  {10daf874-1c38-401b-91b6-9450f54254ad}, !- Layer 3
  {5e266a6f-33dc-496c-b97d-8c6ab26ecc0c}; !- Layer 4

OS:Material,
  {ad96ba35-753b-4dcc-9b88-a9c9b34487b8}, !- Handle
  Exterior_Finish_Vinyl_Light,            !- Name
  Rough,                                  !- Roughness
  0.009525,                               !- Thickness {m}
  0.089435,                               !- Conductivity {W/m-K}
  177.822,                                !- Density {kg/m3}
  1046.75,                                !- Specific Heat {J/kg-K}
  0.9,                                    !- Thermal Absorptance
  0.3,                                    !- Solar Absorptance
  0.3;                                    !- Visible Absorptance

OS:Material,
  {0160bc6d-4835-44c4-a0a4-4a823be45999}, !- Handle
  Plywood_1_2in,                          !- Name
  Rough,                                  !- Roughness
  0.0127,                                 !- Thickness {m}
  0.1154577,                              !- Conductivity {W/m-K}
  512.64,                                 !- Density {kg/m3}
  1214.23;                                !- Specific Heat {J/kg-K}

OS:Material,
  {5e266a6f-33dc-496c-b97d-8c6ab26ecc0c}, !- Handle
  GypsumBoard_1_2in,                      !- Name
  Rough,                                  !- Roughness
  0.0127,                                 !- Thickness {m}
  0.1602906,                              !- Conductivity {W/m-K}
  801,                                    !- Density {kg/m3}
  837.4;                                  !- Specific Heat {J/kg-K}

OS:Material,
  {10daf874-1c38-401b-91b6-9450f54254ad}, !- Handle
  StudandCavity,                          !- Name
  Rough,                                  !- Roughness
  0.0889,                                 !- Thickness {m}
  0.0569424553543112,                     !- Conductivity {W/m-K}
  161.735759427773,                       !- Density {kg/m3}
  1179.45713225292;                       !- Specific Heat {J/kg-K}

