
OS:Version,
  {facfedd6-400e-40be-8943-d9d21888f905}, !- Handle
  1.3.1;                                  !- Version Identifier

OS:Construction,
  {34056032-6012-4ba4-a91c-0e5233754bc2}, !- Handle
  ExtInsFinWall,                          !- Name
  ,                                       !- Surface Rendering Name
  {28c44195-e4ea-46cf-bf42-d9adddf31582}, !- Layer 1
  {7fd814da-f5b7-4a5c-9e1a-9e0af3eae3e0}, !- Layer 2
  {5653e2fa-b897-46aa-82b6-7af5e10470bc}, !- Layer 3
  {9f8b1cd7-6961-4dc4-b10d-6d5fdc61ae54}; !- Layer 4

OS:Material,
  {28c44195-e4ea-46cf-bf42-d9adddf31582}, !- Handle
  Exterior_Finish_Vinyl_Light,            !- Name
  Rough,                                  !- Roughness
  0.009525,                               !- Thickness {m}
  0.089435,                               !- Conductivity {W/m-K}
  177.822,                                !- Density {kg/m3}
  1046.75,                                !- Specific Heat {J/kg-K}
  0.9,                                    !- Thermal Absorptance
  0.3,                                    !- Solar Absorptance
  0.3;                                    !- Visible Absorptance

OS:Material,
  {9f8b1cd7-6961-4dc4-b10d-6d5fdc61ae54}, !- Handle
  GypsumBoard_1_2in,                      !- Name
  Rough,                                  !- Roughness
  0.0127,                                 !- Thickness {m}
  0.1602906,                              !- Conductivity {W/m-K}
  801,                                    !- Density {kg/m3}
  837.4;                                  !- Specific Heat {J/kg-K}

OS:Material,
  {7fd814da-f5b7-4a5c-9e1a-9e0af3eae3e0}, !- Handle
  CMU,                                    !- Name
  Rough,                                  !- Roughness
  0.1524,                                 !- Thickness {m}
  0.150024889091897,                      !- Conductivity {W/m-K}
  1030.7268,                              !- Density {kg/m3}
  851.643869443581;                       !- Specific Heat {J/kg-K}

OS:Material,
  {5653e2fa-b897-46aa-82b6-7af5e10470bc}, !- Handle
  Furring,                                !- Name
  Rough,                                  !- Roughness
  0.1397,                                 !- Thickness {m}
  0.0519641842131579,                     !- Conductivity {W/m-K}
  110.3341455,                            !- Density {kg/m3}
  1154.52431712832;                       !- Specific Heat {J/kg-K}

