
OS:Version,
  {a17544be-8ed5-485b-94bc-f0cfd1367423}, !- Handle
  1.3.1;                                  !- Version Identifier

OS:Construction,
  {a72eb9da-5a2e-4708-88c6-4870436cb41e}, !- Handle
  UnfinCSInsFinFloor,                     !- Name
  ,                                       !- Surface Rendering Name
  {fcec78ef-b2d1-41e0-b488-b0269f9af27b}, !- Layer 1
  {390796a1-ce6b-4349-8000-866b7e116893}, !- Layer 2
  {555bc780-9186-4f92-8754-60ea69ba338a}, !- Layer 3
  {f22ec2b0-8097-43e1-9d22-74c1cb3df914}; !- Layer 4

OS:Material,
  {390796a1-ce6b-4349-8000-866b7e116893}, !- Handle
  Plywood_3_4in,                          !- Name
  Rough,                                  !- Roughness
  0.01905,                                !- Thickness {m}
  0.1154577,                              !- Conductivity {W/m-K}
  512.64,                                 !- Density {kg/m3}
  1214.23;                                !- Specific Heat {J/kg-K}

OS:Material,
  {555bc780-9186-4f92-8754-60ea69ba338a}, !- Handle
  Floor_Mass_Wood_Surface,                !- Name
  Rough,                                  !- Roughness
  0.015875,                               !- Thickness {m}
  0.1154577,                              !- Conductivity {W/m-K}
  544.68,                                 !- Density {kg/m3}
  1214.23,                                !- Specific Heat {J/kg-K}
  0.9,                                    !- Thermal Absorptance
  0.6;                                    !- Solar Absorptance

OS:Material,
  {f22ec2b0-8097-43e1-9d22-74c1cb3df914}, !- Handle
  CarpetBareLayer,                        !- Name
  Rough,                                  !- Roughness
  0.0127,                                 !- Thickness {m}
  0.0433443509615385,                     !- Conductivity {W/m-K}
  54.4679999999999,                       !- Density {kg/m3}
  1339.84;                                !- Specific Heat {J/kg-K}

OS:Material,
  {fcec78ef-b2d1-41e0-b488-b0269f9af27b}, !- Handle
  CrawlCeilingIns,                        !- Name
  Rough,                                  !- Roughness
  0.23495,                                !- Thickness {m}
  0.0754732191870427,                     !- Conductivity {W/m-K}
  106.36479,                              !- Density {kg/m3}
  1151.68513065742;                       !- Specific Heat {J/kg-K}

