
OS:Version,
  {b1a94dc0-bcca-4e71-824e-3c7ae3f7cbe8}, !- Handle
  1.3.1;                                  !- Version Identifier

OS:Construction,
  {7a209e1a-8b3f-4bf3-8d14-6b9a12c7994d}, !- Handle
  ExtInsFinWall,                          !- Name
  ,                                       !- Surface Rendering Name
  {8981e2b9-394e-4a2f-b5c2-b006a6151c6e}, !- Layer 1
  {0ff2f93d-5193-41ca-ae8f-de6217a19702}, !- Layer 2
  {56929f16-4636-4c7e-8c16-7093aba8b977}, !- Layer 3
  {573e80c2-3258-4420-bcf2-464841907cb0}, !- Layer 4
  {0ac7561a-d0c0-434f-8508-e616cb02af43}, !- Layer 5
  {a42ac8da-90d7-4d9e-b701-eda8e979c800}; !- Layer 6

OS:Material,
  {8981e2b9-394e-4a2f-b5c2-b006a6151c6e}, !- Handle
  Exterior_Finish_Vinyl_Light,            !- Name
  Rough,                                  !- Roughness
  0.009525,                               !- Thickness {m}
  0.089435,                               !- Conductivity {W/m-K}
  177.822,                                !- Density {kg/m3}
  1046.75,                                !- Specific Heat {J/kg-K}
  0.9,                                    !- Thermal Absorptance
  0.3,                                    !- Solar Absorptance
  0.3;                                    !- Visible Absorptance

OS:Material,
  {0ff2f93d-5193-41ca-ae8f-de6217a19702}, !- Handle
  Plywood_1_2in,                          !- Name
  Rough,                                  !- Roughness
  0.0127,                                 !- Thickness {m}
  0.1154577,                              !- Conductivity {W/m-K}
  512.64,                                 !- Density {kg/m3}
  1214.23;                                !- Specific Heat {J/kg-K}

OS:Material,
  {a42ac8da-90d7-4d9e-b701-eda8e979c800}, !- Handle
  GypsumBoard_1_2in,                      !- Name
  Rough,                                  !- Roughness
  0.0127,                                 !- Thickness {m}
  0.1602906,                              !- Conductivity {W/m-K}
  801,                                    !- Density {kg/m3}
  837.4;                                  !- Specific Heat {J/kg-K}

OS:Material,
  {56929f16-4636-4c7e-8c16-7093aba8b977}, !- Handle
  StudandCavity,                          !- Name
  Rough,                                  !- Roughness
  0.0889,                                 !- Thickness {m}
  0.0583353854451465,                     !- Conductivity {W/m-K}
  148.39326,                              !- Density {kg/m3}
  1174.03696966425;                       !- Specific Heat {J/kg-K}

OS:Material,
  {573e80c2-3258-4420-bcf2-464841907cb0}, !- Handle
  Cavity,                                 !- Name
  Rough,                                  !- Roughness
  0.0889,                                 !- Thickness {m}
  0.0568534229772727,                     !- Conductivity {W/m-K}
  119.206822499999,                       !- Density {kg/m3}
  1160.18704077004;                       !- Specific Heat {J/kg-K}

OS:Material,
  {0ac7561a-d0c0-434f-8508-e616cb02af43}, !- Handle
  StudandCavity 1,                        !- Name
  Rough,                                  !- Roughness
  0.0889,                                 !- Thickness {m}
  0.0583353854451465,                     !- Conductivity {W/m-K}
  148.39326,                              !- Density {kg/m3}
  1174.03696966425;                       !- Specific Heat {J/kg-K}

