
Version,
  9.2;                                    !- Version Identifier

Timestep,
  1;                                      !- Number of Timesteps per Hour

LifeCycleCost:Parameters,
  Life Cycle Cost Parameters,             !- Name
  EndOfYear,                              !- Discounting Convention
  ConstantDollar,                         !- Inflation Approach
  0.03,                                   !- Real Discount Rate
  ,                                       !- Nominal Discount Rate
  ,                                       !- Inflation
  ,                                       !- Base Date Month
  2011,                                   !- Base Date Year
  ,                                       !- Service Date Month
  2011,                                   !- Service Date Year
  25,                                     !- Length of Study Period in Years
  ,                                       !- Tax rate
  None;                                   !- Depreciation Method

LifeCycleCost:UsePriceEscalation,
  U.S. Avg  Commercial-Electricity,       !- LCC Price Escalation Name
  Electricity,                            !- Resource
  2011,                                   !- Escalation Start Year
  January,                                !- Escalation Start Month
  0.9838,                                 !- Year Escalation 1
  0.9730,                                 !- Year Escalation 2
  0.9632,                                 !- Year Escalation 3
  0.9611,                                 !- Year Escalation 4
  0.9571,                                 !- Year Escalation 5
  0.9553,                                 !- Year Escalation 6
  0.9539,                                 !- Year Escalation 7
  0.9521,                                 !- Year Escalation 8
  0.9546,                                 !- Year Escalation 9
  0.9550,                                 !- Year Escalation 10
  0.9553,                                 !- Year Escalation 11
  0.9564,                                 !- Year Escalation 12
  0.9575,                                 !- Year Escalation 13
  0.9596,                                 !- Year Escalation 14
  0.9618,                                 !- Year Escalation 15
  0.9614,                                 !- Year Escalation 16
  0.9618,                                 !- Year Escalation 17
  0.9618,                                 !- Year Escalation 18
  0.9593,                                 !- Year Escalation 19
  0.9589,                                 !- Year Escalation 20
  0.9607,                                 !- Year Escalation 21
  0.9625,                                 !- Year Escalation 22
  0.9650,                                 !- Year Escalation 23
  0.9708,                                 !- Year Escalation 24
  0.9751,                                 !- Year Escalation 25
  0.9762,                                 !- Year Escalation 26
  0.9766,                                 !- Year Escalation 27
  0.9766,                                 !- Year Escalation 28
  0.9769,                                 !- Year Escalation 29
  0.9773;                                 !- Year Escalation 30

LifeCycleCost:UsePriceEscalation,
  U.S. Avg  Commercial-Distillate Oil,    !- LCC Price Escalation Name
  FuelOil#1,                              !- Resource
  2011,                                   !- Escalation Start Year
  January,                                !- Escalation Start Month
  0.9714,                                 !- Year Escalation 1
  0.9730,                                 !- Year Escalation 2
  0.9942,                                 !- Year Escalation 3
  1.0164,                                 !- Year Escalation 4
  1.0541,                                 !- Year Escalation 5
  1.0928,                                 !- Year Escalation 6
  1.1267,                                 !- Year Escalation 7
  1.1580,                                 !- Year Escalation 8
  1.1792,                                 !- Year Escalation 9
  1.1967,                                 !- Year Escalation 10
  1.2200,                                 !- Year Escalation 11
  1.2333,                                 !- Year Escalation 12
  1.2566,                                 !- Year Escalation 13
  1.2709,                                 !- Year Escalation 14
  1.2826,                                 !- Year Escalation 15
  1.2985,                                 !- Year Escalation 16
  1.3102,                                 !- Year Escalation 17
  1.3250,                                 !- Year Escalation 18
  1.3261,                                 !- Year Escalation 19
  1.3282,                                 !- Year Escalation 20
  1.3324,                                 !- Year Escalation 21
  1.3356,                                 !- Year Escalation 22
  1.3431,                                 !- Year Escalation 23
  1.3510,                                 !- Year Escalation 24
  1.3568,                                 !- Year Escalation 25
  1.3606,                                 !- Year Escalation 26
  1.3637,                                 !- Year Escalation 27
  1.3674,                                 !- Year Escalation 28
  1.3706,                                 !- Year Escalation 29
  1.3743;                                 !- Year Escalation 30

LifeCycleCost:UsePriceEscalation,
  U.S. Avg  Commercial-Residual Oil,      !- LCC Price Escalation Name
  FuelOil#2,                              !- Resource
  2011,                                   !- Escalation Start Year
  January,                                !- Escalation Start Month
  0.8469,                                 !- Year Escalation 1
  0.8257,                                 !- Year Escalation 2
  0.8681,                                 !- Year Escalation 3
  0.8988,                                 !- Year Escalation 4
  0.9289,                                 !- Year Escalation 5
  0.9604,                                 !- Year Escalation 6
  0.9897,                                 !- Year Escalation 7
  1.0075,                                 !- Year Escalation 8
  1.0314,                                 !- Year Escalation 9
  1.0554,                                 !- Year Escalation 10
  1.0861,                                 !- Year Escalation 11
  1.1278,                                 !- Year Escalation 12
  1.1497,                                 !- Year Escalation 13
  1.1620,                                 !- Year Escalation 14
  1.1743,                                 !- Year Escalation 15
  1.1852,                                 !- Year Escalation 16
  1.1948,                                 !- Year Escalation 17
  1.2037,                                 !- Year Escalation 18
  1.2071,                                 !- Year Escalation 19
  1.2119,                                 !- Year Escalation 20
  1.2139,                                 !- Year Escalation 21
  1.2194,                                 !- Year Escalation 22
  1.2276,                                 !- Year Escalation 23
  1.2365,                                 !- Year Escalation 24
  1.2420,                                 !- Year Escalation 25
  1.2461,                                 !- Year Escalation 26
  1.2509,                                 !- Year Escalation 27
  1.2550,                                 !- Year Escalation 28
  1.2591,                                 !- Year Escalation 29
  1.2638;                                 !- Year Escalation 30

LifeCycleCost:UsePriceEscalation,
  U.S. Avg  Commercial-Natural gas,       !- LCC Price Escalation Name
  NaturalGas,                             !- Resource
  2011,                                   !- Escalation Start Year
  January,                                !- Escalation Start Month
  0.9823,                                 !- Year Escalation 1
  0.9557,                                 !- Year Escalation 2
  0.9279,                                 !- Year Escalation 3
  0.9257,                                 !- Year Escalation 4
  0.9346,                                 !- Year Escalation 5
  0.9412,                                 !- Year Escalation 6
  0.9512,                                 !- Year Escalation 7
  0.9645,                                 !- Year Escalation 8
  0.9856,                                 !- Year Escalation 9
  1.0067,                                 !- Year Escalation 10
  1.0222,                                 !- Year Escalation 11
  1.0410,                                 !- Year Escalation 12
  1.0610,                                 !- Year Escalation 13
  1.0787,                                 !- Year Escalation 14
  1.0942,                                 !- Year Escalation 15
  1.1098,                                 !- Year Escalation 16
  1.1220,                                 !- Year Escalation 17
  1.1308,                                 !- Year Escalation 18
  1.1386,                                 !- Year Escalation 19
  1.1486,                                 !- Year Escalation 20
  1.1619,                                 !- Year Escalation 21
  1.1763,                                 !- Year Escalation 22
  1.1918,                                 !- Year Escalation 23
  1.2118,                                 !- Year Escalation 24
  1.2284,                                 !- Year Escalation 25
  1.2439,                                 !- Year Escalation 26
  1.2605,                                 !- Year Escalation 27
  1.2772,                                 !- Year Escalation 28
  1.2938,                                 !- Year Escalation 29
  1.3115;                                 !- Year Escalation 30

LifeCycleCost:UsePriceEscalation,
  U.S. Avg  Commercial-Coal,              !- LCC Price Escalation Name
  Coal,                                   !- Resource
  2011,                                   !- Escalation Start Year
  January,                                !- Escalation Start Month
  0.9970,                                 !- Year Escalation 1
  1.0089,                                 !- Year Escalation 2
  1.0089,                                 !- Year Escalation 3
  0.9941,                                 !- Year Escalation 4
  0.9941,                                 !- Year Escalation 5
  1.0000,                                 !- Year Escalation 6
  1.0030,                                 !- Year Escalation 7
  1.0059,                                 !- Year Escalation 8
  1.0089,                                 !- Year Escalation 9
  1.0119,                                 !- Year Escalation 10
  1.0148,                                 !- Year Escalation 11
  1.0178,                                 !- Year Escalation 12
  1.0208,                                 !- Year Escalation 13
  1.0267,                                 !- Year Escalation 14
  1.0297,                                 !- Year Escalation 15
  1.0356,                                 !- Year Escalation 16
  1.0415,                                 !- Year Escalation 17
  1.0534,                                 !- Year Escalation 18
  1.0564,                                 !- Year Escalation 19
  1.0593,                                 !- Year Escalation 20
  1.0653,                                 !- Year Escalation 21
  1.0712,                                 !- Year Escalation 22
  1.0742,                                 !- Year Escalation 23
  1.0801,                                 !- Year Escalation 24
  1.0831,                                 !- Year Escalation 25
  1.0831,                                 !- Year Escalation 26
  1.0861,                                 !- Year Escalation 27
  1.0890,                                 !- Year Escalation 28
  1.0920,                                 !- Year Escalation 29
  1.0950;                                 !- Year Escalation 30

Building,
  Building 1,                             !- Name
  ,                                       !- North Axis {deg}
  Suburbs,                                !- Terrain
  ,                                       !- Loads Convergence Tolerance Value
  ,                                       !- Temperature Convergence Tolerance Value {deltaC}
  ,                                       !- Solar Distribution
  ,                                       !- Maximum Number of Warmup Days
  ;                                       !- Minimum Number of Warmup Days

Zone,
  living,                                 !- Name
  ,                                       !- Direction of Relative North {deg}
  ,                                       !- X Origin {m}
  ,                                       !- Y Origin {m}
  ,                                       !- Z Origin {m}
  ,                                       !- Type
  ,                                       !- Multiplier
  ,                                       !- Ceiling Height {m}
  577.6636704768,                         !- Volume {m3}
  ,                                       !- Floor Area {m2}
  ,                                       !- Zone Inside Convection Algorithm
  ;                                       !- Zone Outside Convection Algorithm

BuildingSurface:Detailed,
  FloorAboveCrawlspace,                   !- Name
  Floor,                                  !- Surface Type
  FloorAboveCrawlspace construction,      !- Construction Name
  living,                                 !- Zone Name
  Surface,                                !- Outside Boundary Condition
  Surface 1 Reversed 1,                   !- Outside Boundary Condition Object
  NoSun,                                  !- Sun Exposure
  NoWind,                                 !- Wind Exposure
  ,                                       !- View Factor to Ground
  ,                                       !- Number of Vertices
  -5.27929086146994, -5.27929086146994, 0.6096, !- X,Y,Z Vertex 1 {m}
  -5.27929086146994, 5.27929086146994, 0.6096, !- X,Y,Z Vertex 2 {m}
  5.27929086146994, 5.27929086146994, 0.6096, !- X,Y,Z Vertex 3 {m}
  5.27929086146994, -5.27929086146994, 0.6096; !- X,Y,Z Vertex 4 {m}

BuildingSurface:Detailed,
  FloorBelowAttic,                        !- Name
  Ceiling,                                !- Surface Type
  FloorBelowAttic construction,           !- Construction Name
  living,                                 !- Zone Name
  Surface,                                !- Outside Boundary Condition
  Surface 1 Reversed,                     !- Outside Boundary Condition Object
  NoSun,                                  !- Sun Exposure
  NoWind,                                 !- Wind Exposure
  ,                                       !- View Factor to Ground
  ,                                       !- Number of Vertices
  5.27929086146994, -5.27929086146994, 5.4864, !- X,Y,Z Vertex 1 {m}
  5.27929086146994, 5.27929086146994, 5.4864, !- X,Y,Z Vertex 2 {m}
  -5.27929086146994, 5.27929086146994, 5.4864, !- X,Y,Z Vertex 3 {m}
  -5.27929086146994, -5.27929086146994, 5.4864; !- X,Y,Z Vertex 4 {m}

BuildingSurface:Detailed,
  inferred conditioned floor,             !- Name
  Floor,                                  !- Surface Type
  AdiabaticFloorConstruction,             !- Construction Name
  living,                                 !- Zone Name
  Adiabatic,                              !- Outside Boundary Condition
  ,                                       !- Outside Boundary Condition Object
  NoSun,                                  !- Sun Exposure
  NoWind,                                 !- Wind Exposure
  ,                                       !- View Factor to Ground
  ,                                       !- Number of Vertices
  5.27929086146994, 5.27929086146994, 3.048, !- X,Y,Z Vertex 1 {m}
  5.27929086146994, -5.27929086146994, 3.048, !- X,Y,Z Vertex 2 {m}
  -5.27929086146994, -5.27929086146994, 3.048, !- X,Y,Z Vertex 3 {m}
  -5.27929086146994, 5.27929086146994, 3.048; !- X,Y,Z Vertex 4 {m}

BuildingSurface:Detailed,
  surface DoorNorth,                      !- Name
  Wall,                                   !- Surface Type
  AdiabaticWallConstruction 1,            !- Construction Name
  living,                                 !- Zone Name
  Outdoors,                               !- Outside Boundary Condition
  ,                                       !- Outside Boundary Condition Object
  SunExposed,                             !- Sun Exposure
  WindExposed,                            !- Wind Exposure
  ,                                       !- View Factor to Ground
  ,                                       !- Number of Vertices
  -1.32276725805, 54.673045576343, 0.6096, !- X,Y,Z Vertex 1 {m}
  -1.32276725805, 54.673045576343, 2.643616, !- X,Y,Z Vertex 2 {m}
  -0.406824229564246, 54.673045576343, 2.643616, !- X,Y,Z Vertex 3 {m}
  -0.406824229564246, 54.673045576343, 0.6096; !- X,Y,Z Vertex 4 {m}

FenestrationSurface:Detailed,
  DoorNorth,                              !- Name
  Door,                                   !- Surface Type
  Door,                                   !- Construction Name
  surface DoorNorth,                      !- Building Surface Name
  ,                                       !- Outside Boundary Condition Object
  ,                                       !- View Factor to Ground
  ,                                       !- Frame and Divider Name
  ,                                       !- Multiplier
  ,                                       !- Number of Vertices
  -1.32176725805, 54.673045576343, 0.6096, !- X,Y,Z Vertex 1 {m}
  -1.32176725805, 54.673045576343, 2.642616, !- X,Y,Z Vertex 2 {m}
  -0.407824229564246, 54.673045576343, 2.642616, !- X,Y,Z Vertex 3 {m}
  -0.407824229564246, 54.673045576343, 0.6096; !- X,Y,Z Vertex 4 {m}

BuildingSurface:Detailed,
  surface DoorSouth,                      !- Name
  Wall,                                   !- Surface Type
  AdiabaticWallConstruction 1,            !- Construction Name
  living,                                 !- Zone Name
  Outdoors,                               !- Outside Boundary Condition
  ,                                       !- Outside Boundary Condition Object
  SunExposed,                             !- Sun Exposure
  WindExposed,                            !- Wind Exposure
  ,                                       !- View Factor to Ground
  ,                                       !- Number of Vertices
  -53.7581003698896, -54.6730477468715, 0.6096, !- X,Y,Z Vertex 1 {m}
  -53.7581003698896, -54.6730477468715, 2.643616, !- X,Y,Z Vertex 2 {m}
  -54.6740433983754, -54.6730477713256, 2.643616, !- X,Y,Z Vertex 3 {m}
  -54.6740433983754, -54.6730477713256, 0.6096; !- X,Y,Z Vertex 4 {m}

FenestrationSurface:Detailed,
  DoorSouth,                              !- Name
  Door,                                   !- Surface Type
  Door 1,                                 !- Construction Name
  surface DoorSouth,                      !- Building Surface Name
  ,                                       !- Outside Boundary Condition Object
  ,                                       !- View Factor to Ground
  ,                                       !- Frame and Divider Name
  ,                                       !- Multiplier
  ,                                       !- Number of Vertices
  -53.7591003698896, -54.6730477468982, 0.6096, !- X,Y,Z Vertex 1 {m}
  -53.7591003698896, -54.6730477468982, 2.642616, !- X,Y,Z Vertex 2 {m}
  -54.6730433983754, -54.6730477712989, 2.642616, !- X,Y,Z Vertex 3 {m}
  -54.6730433983754, -54.6730477712989, 0.6096; !- X,Y,Z Vertex 4 {m}

BuildingSurface:Detailed,
  surface Window_Wall_east,               !- Name
  Wall,                                   !- Surface Type
  AdiabaticWallConstruction,              !- Construction Name
  living,                                 !- Zone Name
  Outdoors,                               !- Outside Boundary Condition
  ,                                       !- Outside Boundary Condition Object
  SunExposed,                             !- Sun Exposure
  WindExposed,                            !- Wind Exposure
  ,                                       !- View Factor to Ground
  ,                                       !- Number of Vertices
  54.6730468827616, -46.4424441282127, 0.6096, !- X,Y,Z Vertex 1 {m}
  54.6730468827616, -46.4424441282127, 1.8298, !- X,Y,Z Vertex 2 {m}
  54.6730469926462, -54.6740441282127, 1.8298, !- X,Y,Z Vertex 3 {m}
  54.6730469926462, -54.6740441282127, 0.6096; !- X,Y,Z Vertex 4 {m}

FenestrationSurface:Detailed,
  Window_Wall_east,                       !- Name
  Window,                                 !- Surface Type
  WindowConstruction 2,                   !- Construction Name
  surface Window_Wall_east,               !- Building Surface Name
  ,                                       !- Outside Boundary Condition Object
  ,                                       !- View Factor to Ground
  ,                                       !- Frame and Divider Name
  ,                                       !- Multiplier
  ,                                       !- Number of Vertices
  54.6730468827749, -46.4434441282127, 0.6106, !- X,Y,Z Vertex 1 {m}
  54.6730468827749, -46.4434441282127, 1.8298, !- X,Y,Z Vertex 2 {m}
  54.6730469926329, -54.6730441282127, 1.8298, !- X,Y,Z Vertex 3 {m}
  54.6730469926329, -54.6730441282127, 0.6106; !- X,Y,Z Vertex 4 {m}

BuildingSurface:Detailed,
  surface Window_Wall_north,              !- Name
  Wall,                                   !- Surface Type
  AdiabaticWallConstruction,              !- Construction Name
  living,                                 !- Zone Name
  Outdoors,                               !- Outside Boundary Condition
  ,                                       !- Outside Boundary Condition Object
  SunExposed,                             !- Sun Exposure
  WindExposed,                            !- Wind Exposure
  ,                                       !- View Factor to Ground
  ,                                       !- Number of Vertices
  -10.48139765805, 54.6730455029121, 0.6096, !- X,Y,Z Vertex 1 {m}
  -10.48139765805, 54.6730455029121, 1.8298, !- X,Y,Z Vertex 2 {m}
  -2.24979765805, 54.6730455029121, 1.8298, !- X,Y,Z Vertex 3 {m}
  -2.24979765805, 54.6730455029121, 0.6096; !- X,Y,Z Vertex 4 {m}

FenestrationSurface:Detailed,
  Window_Wall_north,                      !- Name
  Window,                                 !- Surface Type
  WindowConstruction,                     !- Construction Name
  surface Window_Wall_north,              !- Building Surface Name
  ,                                       !- Outside Boundary Condition Object
  ,                                       !- View Factor to Ground
  ,                                       !- Frame and Divider Name
  ,                                       !- Multiplier
  ,                                       !- Number of Vertices
  -10.48039765805, 54.6730455029121, 0.6106, !- X,Y,Z Vertex 1 {m}
  -10.48039765805, 54.6730455029121, 1.8298, !- X,Y,Z Vertex 2 {m}
  -2.25079765805, 54.6730455029121, 1.8298, !- X,Y,Z Vertex 3 {m}
  -2.25079765805, 54.6730455029121, 0.6106; !- X,Y,Z Vertex 4 {m}

BuildingSurface:Detailed,
  surface Window_Wall_south,              !- Name
  Wall,                                   !- Surface Type
  AdiabaticWallConstruction,              !- Construction Name
  living,                                 !- Zone Name
  Outdoors,                               !- Outside Boundary Condition
  ,                                       !- Outside Boundary Condition Object
  SunExposed,                             !- Sun Exposure
  WindExposed,                            !- Wind Exposure
  ,                                       !- View Factor to Ground
  ,                                       !- Number of Vertices
  -44.5994699698896, -54.6730474289213, 0.6096, !- X,Y,Z Vertex 1 {m}
  -44.5994699698896, -54.6730474289213, 1.8298, !- X,Y,Z Vertex 2 {m}
  -52.8310699698896, -54.6730476486906, 1.8298, !- X,Y,Z Vertex 3 {m}
  -52.8310699698896, -54.6730476486906, 0.6096; !- X,Y,Z Vertex 4 {m}

FenestrationSurface:Detailed,
  Window_Wall_south,                      !- Name
  Window,                                 !- Surface Type
  WindowConstruction 1,                   !- Construction Name
  surface Window_Wall_south,              !- Building Surface Name
  ,                                       !- Outside Boundary Condition Object
  ,                                       !- View Factor to Ground
  ,                                       !- Frame and Divider Name
  ,                                       !- Multiplier
  ,                                       !- Number of Vertices
  -44.6004699698896, -54.673047428948, 0.6106, !- X,Y,Z Vertex 1 {m}
  -44.6004699698896, -54.673047428948, 1.8298, !- X,Y,Z Vertex 2 {m}
  -52.8300699698896, -54.6730476486639, 1.8298, !- X,Y,Z Vertex 3 {m}
  -52.8300699698896, -54.6730476486639, 0.6106; !- X,Y,Z Vertex 4 {m}

BuildingSurface:Detailed,
  surface Window_Wall_west,               !- Name
  Wall,                                   !- Surface Type
  AdiabaticWallConstruction,              !- Construction Name
  living,                                 !- Zone Name
  Outdoors,                               !- Outside Boundary Condition
  ,                                       !- Outside Boundary Condition Object
  SunExposed,                             !- Sun Exposure
  WindExposed,                            !- Wind Exposure
  ,                                       !- View Factor to Ground
  ,                                       !- Number of Vertices
  -54.6730481226935, 46.442442668538, 0.6096, !- X,Y,Z Vertex 1 {m}
  -54.6730481226935, 46.442442668538, 1.8298, !- X,Y,Z Vertex 2 {m}
  -54.6730484523474, 54.674042668538, 1.8298, !- X,Y,Z Vertex 3 {m}
  -54.6730484523474, 54.674042668538, 0.6096; !- X,Y,Z Vertex 4 {m}

FenestrationSurface:Detailed,
  Window_Wall_west,                       !- Name
  Window,                                 !- Surface Type
  WindowConstruction 3,                   !- Construction Name
  surface Window_Wall_west,               !- Building Surface Name
  ,                                       !- Outside Boundary Condition Object
  ,                                       !- View Factor to Ground
  ,                                       !- Frame and Divider Name
  ,                                       !- Multiplier
  ,                                       !- Number of Vertices
  -54.6730481227335, 46.443442668538, 0.6106, !- X,Y,Z Vertex 1 {m}
  -54.6730481227335, 46.443442668538, 1.8298, !- X,Y,Z Vertex 2 {m}
  -54.6730484523074, 54.673042668538, 1.8298, !- X,Y,Z Vertex 3 {m}
  -54.6730484523074, 54.673042668538, 0.6106; !- X,Y,Z Vertex 4 {m}

BuildingSurface:Detailed,
  Wall,                                   !- Name
  Wall,                                   !- Surface Type
  Wall construction,                      !- Construction Name
  living,                                 !- Zone Name
  Outdoors,                               !- Outside Boundary Condition
  ,                                       !- Outside Boundary Condition Object
  SunExposed,                             !- Sun Exposure
  WindExposed,                            !- Wind Exposure
  ,                                       !- View Factor to Ground
  ,                                       !- Number of Vertices
  -47.29048405805, 54.6730451960911, 0.6096, !- X,Y,Z Vertex 1 {m}
  -47.29048405805, 54.6730451960911, 5.4864, !- X,Y,Z Vertex 2 {m}
  -11.40942805805, 54.6730451960911, 5.4864, !- X,Y,Z Vertex 3 {m}
  -11.40942805805, 54.6730451960911, 0.6096; !- X,Y,Z Vertex 4 {m}

InternalMass,
  furniture mass living,                  !- Name
  furniture construction living,          !- Construction Name
  living,                                 !- Zone or ZoneList Name
  222.967296;                             !- Surface Area {m2}

InternalMass,
  living Partition,                       !- Name
  PartitionWallConstruction,              !- Construction Name
  living,                                 !- Zone or ZoneList Name
  222.967296;                             !- Surface Area {m2}

People,
  occupants|living,                       !- Name
  living,                                 !- Zone or ZoneList Name
  occupants schedule,                     !- Number of People Schedule Name
  People,                                 !- Number of People Calculation Method
  3,                                      !- Number of People
  ,                                       !- People per Zone Floor Area {person/m2}
  ,                                       !- Zone Floor Area per Person {m2/person}
  0.314170909090909,                      !- Fraction Radiant
  0.563030303030303,                      !- Sensible Heat Fraction
  Schedule Ruleset 1,                     !- Activity Level Schedule Name
  0,                                      !- Carbon Dioxide Generation Rate {m3/s-W}
  No,                                     !- Enable ASHRAE 55 Comfort Warnings
  ZoneAveraged;                           !- Mean Radiant Temperature Calculation Type

Lights,
  interior lighting,                      !- Name
  living,                                 !- Zone or ZoneList Name
  lighting schedule,                      !- Schedule Name
  LightingLevel,                          !- Design Level Calculation Method
  375.887872636709,                       !- Lighting Level {W}
  ,                                       !- Watts per Zone Floor Area {W/m2}
  ,                                       !- Watts per Person {W/person}
  0,                                      !- Return Air Fraction
  0.6,                                    !- Fraction Radiant