
OS:Version,
  {3c6c7c43-5411-4b79-a40c-567e70d12e03}, !- Handle
  1.3.1;                                  !- Version Identifier

OS:Construction,
  {c0042867-23fa-4ae1-9941-532e27363bd0}, !- Handle
  ExtInsFinWall,                          !- Name
  ,                                       !- Surface Rendering Name
  {4dda2434-aea1-4dca-a931-a487893bdb1d}, !- Layer 1
  {5d522ada-b73f-40f9-9f0b-135e562f80f5}, !- Layer 2
  {bf62650b-5ecc-428b-a7ad-2e4706ea679b}, !- Layer 3
  {592bf304-00b5-4dec-b3c9-9d5c0966db11}, !- Layer 4
  {2a50cdab-b34c-41b9-8d4c-ad7f4c9f1e35}, !- Layer 5
  {d43bc5b9-df97-46b4-8fa2-99715ca9cf2f}; !- Layer 6

OS:Material,
  {4dda2434-aea1-4dca-a931-a487893bdb1d}, !- Handle
  Exterior_Finish_Vinyl_Light,            !- Name
  Rough,                                  !- Roughness
  0.009525,                               !- Thickness {m}
  0.089435,                               !- Conductivity {W/m-K}
  177.822,                                !- Density {kg/m3}
  1046.75,                                !- Specific Heat {J/kg-K}
  0.9,                                    !- Thermal Absorptance
  0.3,                                    !- Solar Absorptance
  0.3;                                    !- Visible Absorptance

OS:Material,
  {5d522ada-b73f-40f9-9f0b-135e562f80f5}, !- Handle
  Plywood_1_2in,                          !- Name
  Rough,                                  !- Roughness
  0.0127,                                 !- Thickness {m}
  0.1154577,                              !- Conductivity {W/m-K}
  512.64,                                 !- Density {kg/m3}
  1214.23;                                !- Specific Heat {J/kg-K}

OS:Material,
  {d43bc5b9-df97-46b4-8fa2-99715ca9cf2f}, !- Handle
  GypsumBoard_1_2in,                      !- Name
  Rough,                                  !- Roughness
  0.0127,                                 !- Thickness {m}
  0.1602906,                              !- Conductivity {W/m-K}
  801,                                    !- Density {kg/m3}
  837.4;                                  !- Specific Heat {J/kg-K}

OS:Material,
  {bf62650b-5ecc-428b-a7ad-2e4706ea679b}, !- Handle
  StudandCavity,                          !- Name
  Rough,                                  !- Roughness
  0.0889,                                 !- Thickness {m}
  0.0583353854451465,                     !- Conductivity {W/m-K}
  148.39326,                              !- Density {kg/m3}
  1174.03696966425;                       !- Specific Heat {J/kg-K}

OS:Material,
  {592bf304-00b5-4dec-b3c9-9d5c0966db11}, !- Handle
  Cavity,                                 !- Name
  Rough,                                  !- Roughness
  0.0889,                                 !- Thickness {m}
  0.0568534229772727,                     !- Conductivity {W/m-K}
  119.206822499999,                       !- Density {kg/m3}
  1160.18704077004;                       !- Specific Heat {J/kg-K}

OS:Material,
  {2a50cdab-b34c-41b9-8d4c-ad7f4c9f1e35}, !- Handle
  StudandCavity 1,                        !- Name
  Rough,                                  !- Roughness
  0.0889,                                 !- Thickness {m}
  0.0583353854451465,                     !- Conductivity {W/m-K}
  148.39326,                              !- Density {kg/m3}
  1174.03696966425;                       !- Specific Heat {J/kg-K}

