!- NOTE: Auto-generated from /test/osw_files/MF_8units_1story_SL_InsetLeft.osw

OS:Version,
  {d86adc5f-49e7-4975-a59c-a8fc3b00145b}, !- Handle
  2.0.4;                                  !- Version Identifier

OS:Building,
  {bf305633-c5a1-4881-9edf-ca5e1a8e1274}, !- Handle
  Building,                               !- Name
  ,                                       !- Building Sector Type
  ,                                       !- North Axis {deg}
  ,                                       !- Nominal Floor to Floor Height {m}
  ,                                       !- Space Type Name
  ,                                       !- Default Construction Set Name
  ,                                       !- Default Schedule Set Name
  1,                                      !- Standards Number of Stories
  1,                                      !- Standards Number of Above Ground Stories
  multifamily,                            !- Standards Building Type
  8;                                      !- Standards Number of Living Units

OS:YearDescription,
  {513d8dda-86cb-442a-b01c-1f7f0e0ac70e}; !- Handle

OS:SimulationControl,
  {2c487a4c-bac9-4ac5-b669-1e49d9da7c2b}, !- Handle
  ,                                       !- Do Zone Sizing Calculation
  ,                                       !- Do System Sizing Calculation
  ,                                       !- Do Plant Sizing Calculation
  No,                                     !- Run Simulation for Sizing Periods
  ;                                       !- Run Simulation for Weather File Run Periods

OS:Timestep,
  {4ebc9f1e-4707-402e-9844-67eb1ffbd522}, !- Handle
  6;                                      !- Number of Timesteps per Hour

OS:RunPeriod,
  {28df894d-6af9-4fb8-8f56-df1753344aa3}, !- Handle
  Run Period,                             !- Name
  1,                                      !- Begin Month
  1,                                      !- Begin Day of Month
  12,                                     !- End Month
  31,                                     !- End Day of Month
  ,                                       !- Use Weather File Holidays and Special Days
  ,                                       !- Use Weather File Daylight Saving Period
  ,                                       !- Apply Weekend Holiday Rule
  ,                                       !- Use Weather File Rain Indicators
  ,                                       !- Use Weather File Snow Indicators
  ;                                       !- Number of Times Runperiod to be Repeated

OS:Sizing:Parameters,
  {dde5af6f-7923-4600-a28a-7556673a0266}, !- Handle
  1.0,                                    !- Heating Sizing Factor
  1.0;                                    !- Cooling Sizing Factor

OS:ShadowCalculation,
  {ca758bea-4416-4626-9bba-3d8795c79bd6}, !- Handle
  20,                                     !- Calculation Frequency
  200;                                    !- Maximum Figures in Shadow Overlap Calculations

OS:SurfaceConvectionAlgorithm:Inside,
  {aaabfc36-718a-4ab0-b622-f186ebb45230}, !- Handle
  TARP;                                   !- Algorithm

OS:SurfaceConvectionAlgorithm:Outside,
  {9a0a9f6f-4bbd-4b12-a121-9492a1fcd7d6}, !- Handle
  DOE-2;                                  !- Algorithm

OS:HeatBalanceAlgorithm,
  {9d93e563-e1e0-46d7-9e39-d1c8aceb7212}, !- Handle
  ConductionTransferFunction,             !- Algorithm
  200;                                    !- Surface Temperature Upper Limit {C}

OS:ZoneCapacitanceMultiplier:ResearchSpecial,
  {6bfced16-b16f-47f6-8223-f7e267d75d19}, !- Handle
  ,                                       !- Temperature Capacity Multiplier
  15,                                     !- Humidity Capacity Multiplier
  ;                                       !- Carbon Dioxide Capacity Multiplier

OS:ThermalZone,
  {caeb7576-1519-432c-a98c-342eb3e2008c}, !- Handle
  living zone,                            !- Name
  ,                                       !- Multiplier
  ,                                       !- Ceiling Height {m}
  ,                                       !- Volume {m3}
  ,                                       !- Floor Area {m2}
  ,                                       !- Zone Inside Convection Algorithm
  ,                                       !- Zone Outside Convection Algorithm
  ,                                       !- Zone Conditioning Equipment List Name
  {d871ff1e-0445-4156-b432-86a748450a8a}, !- Zone Air Inlet Port List
  {306fd9dc-88ab-433f-95bb-c8f03a0f543a}, !- Zone Air Exhaust Port List
  {c14cd342-0ed3-487e-89bb-6aed91d40c08}, !- Zone Air Node Name
  ,                                       !- Zone Return Air Node Name
  ,                                       !- Primary Daylighting Control Name
  ,                                       !- Fraction of Zone Controlled by Primary Daylighting Control
  ,                                       !- Secondary Daylighting Control Name
  ,                                       !- Fraction of Zone Controlled by Secondary Daylighting Control
  ,                                       !- Illuminance Map Name
  ,                                       !- Group Rendering Name
  ,                                       !- Thermostat Name
  No;                                     !- Use Ideal Air Loads

OS:Node,
  {ea461a53-b502-4648-904e-243b6e0d8b49}, !- Handle
  Node 1,                                 !- Name
  {c14cd342-0ed3-487e-89bb-6aed91d40c08}, !- Inlet Port
  ;                                       !- Outlet Port

OS:Connection,
  {c14cd342-0ed3-487e-89bb-6aed91d40c08}, !- Handle
  {81ae360e-e982-4a84-b423-b4cfd204a6d7}, !- Name
  {caeb7576-1519-432c-a98c-342eb3e2008c}, !- Source Object
  11,                                     !- Outlet Port
  {ea461a53-b502-4648-904e-243b6e0d8b49}, !- Target Object
  2;                                      !- Inlet Port

OS:PortList,
  {d871ff1e-0445-4156-b432-86a748450a8a}, !- Handle
  Port List 1,                            !- Name
  {caeb7576-1519-432c-a98c-342eb3e2008c}; !- HVAC Component

OS:PortList,
  {306fd9dc-88ab-433f-95bb-c8f03a0f543a}, !- Handle
  Port List 2,                            !- Name
  {caeb7576-1519-432c-a98c-342eb3e2008c}; !- HVAC Component

OS:Sizing:Zone,
  {cadb3787-a340-4c56-9161-ed811666a375}, !- Handle
  {caeb7576-1519-432c-a98c-342eb3e2008c}, !- Zone or ZoneList Name
  SupplyAirTemperature,                   !- Zone Cooling Design Supply Air Temperature Input Method
  14,                                     !- Zone Cooling Design Supply Air Temperature {C}
  11.11,                                  !- Zone Cooling Design Supply Air Temperature Difference {deltaC}
  SupplyAirTemperature,                   !- Zone Heating Design Supply Air Temperature Input Method
  40,                                     !- Zone Heating Design Supply Air Temperature {C}
  11.11,                                  !- Zone Heating Design Supply Air Temperature Difference {deltaC}
  0.0085,                                 !- Zone Cooling Design Supply Air Humidity Ratio {kg-H2O/kg-air}
  0.008,                                  !- Zone Heating Design Supply Air Humidity Ratio {kg-H2O/kg-air}
  ,                                       !- Zone Heating Sizing Factor
  ,                                       !- Zone Cooling Sizing Factor
  DesignDay,                              !- Cooling Design Air Flow Method
  ,                                       !- Cooling Design Air Flow Rate {m3/s}
  ,                                       !- Cooling Minimum Air Flow per Zone Floor Area {m3/s-m2}
  ,                                       !- Cooling Minimum Air Flow {m3/s}
  ,                                       !- Cooling Minimum Air Flow Fraction
  DesignDay,                              !- Heating Design Air Flow Method
  ,                                       !- Heating Design Air Flow Rate {m3/s}
  ,                                       !- Heating Maximum Air Flow per Zone Floor Area {m3/s-m2}
  ,                                       !- Heating Maximum Air Flow {m3/s}
  ,                                       !- Heating Maximum Air Flow Fraction
  ,                                       !- Design Zone Air Distribution Effectiveness in Cooling Mode
  ,                                       !- Design Zone Air Distribution Effectiveness in Heating Mode
  No,                                     !- Account for Dedicated Outdoor Air System
  NeutralSupplyAir,                       !- Dedicated Outdoor Air System Control Strategy
  autosize,                               !- Dedicated Outdoor Air Low Setpoint Temperature for Design {C}
  autosize;                               !- Dedicated Outdoor Air High Setpoint Temperature for Design {C}

OS:ZoneHVAC:EquipmentList,
  {1fb45c78-6caf-4cb6-84b5-0993de39f32d}, !- Handle
  Zone HVAC Equipment List 1,             !- Name
  {caeb7576-1519-432c-a98c-342eb3e2008c}; !- Thermal Zone

OS:Space,
  {c47a6b43-bc34-435e-af0a-48a83b7f79ca}, !- Handle
  living space,                           !- Name
  ,                                       !- Space Type Name
  ,                                       !- Default Construction Set Name
  ,                                       !- Default Schedule Set Name
  ,                                       !- Direction of Relative North {deg}
  ,                                       !- X Origin {m}
  ,                                       !- Y Origin {m}
  ,                                       !- Z Origin {m}
  ,                                       !- Building Story Name
  {caeb7576-1519-432c-a98c-342eb3e2008c}, !- Thermal Zone Name
  ,                                       !- Part of Total Floor Area
  ,                                       !- Design Specification Outdoor Air Object Name
  {ea98c493-3245-4d3f-b30f-3ecf7152a1db}; !- Building Unit Name

OS:Surface,
  {fe771f34-b7f2-4886-8c61-8ada8914e881}, !- Handle
  Surface 1,                              !- Name
  Floor,                                  !- Surface Type
  ,                                       !- Construction Name
  {c47a6b43-bc34-435e-af0a-48a83b7f79ca}, !- Space Name
  Ground,                                 !- Outside Boundary Condition
  ,                                       !- Outside Boundary Condition Object
  NoSun,                                  !- Sun Exposure
  NoWind,                                 !- Wind Exposure
  ,                                       !- View Factor to Ground
  ,                                       !- Number of Vertices
  0, -11.3588643451371, 0,                !- X,Y,Z Vertex 1 {m}
  0, 0, 0,                                !- X,Y,Z Vertex 2 {m}
  6.59383217256854, 0, 0,                 !- X,Y,Z Vertex 3 {m}
  6.59383217256854, -13.1876643451371, 0, !- X,Y,Z Vertex 4 {m}
  1.8288, -13.1876643451371, 0,           !- X,Y,Z Vertex 5 {m}
  1.8288, -11.3588643451371, 0;           !- X,Y,Z Vertex 6 {m}

OS:Surface,
  {ed0a903d-ddbf-4439-aeff-f5d7f61ebbbd}, !- Handle
  Surface 2,                              !- Name
  Wall,                                   !- Surface Type
  ,                                       !- Construction Name
  {c47a6b43-bc34-435e-af0a-48a83b7f79ca}, !- Space Name
  Outdoors,                               !- Outside Boundary Condition
  ,                                       !- Outside Boundary Condition Object
  SunExposed,                             !- Sun Exposure
  WindExposed,                            !- Wind Exposure
  ,                                       !- View Factor to Ground
  ,                                       !- Number of Vertices
  0, 0, 2.4384,                           !- X,Y,Z Vertex 1 {m}
  0, 0, 0,                                !- X,Y,Z Vertex 2 {m}
  0, -11.3588643451371, 0,                !- X,Y,Z Vertex 3 {m}
  0, -11.3588643451371, 2.4384;           !- X,Y,Z Vertex 4 {m}

OS:Surface,
  {2f9df7a8-d2a4-40cb-920f-c04a399c59e8}, !- Handle
  Surface 3,                              !- Name
  Wall,                                   !- Surface Type
  ,                                       !- Construction Name
  {c47a6b43-bc34-435e-af0a-48a83b7f79ca}, !- Space Name
  Adiabatic,                              !- Outside Boundary Condition
  ,                                       !- Outside Boundary Condition Object
  NoSun,                                  !- Sun Exposure
  NoWind,                                 !- Wind Exposure
  ,                                       !- View Factor to Ground
  ,                                       !- Number of Vertices
  6.59383217256854, 0, 2.4384,            !- X,Y,Z Vertex 1 {m}
  6.59383217256854, 0, 0,                 !- X,Y,Z Vertex 2 {m}
  0, 0, 0,                                !- X,Y,Z Vertex 3 {m}
  0, 0, 2.4384;                           !- X,Y,Z Vertex 4 {m}

OS:Surface,
  {aba89686-d97d-4cc3-8f0b-634297224be6}, !- Handle
  Surface 4,                              !- Name
  Wall,                                   !- Surface Type
  ,                                       !- Construction Name
  {c47a6b43-bc34-435e-af0a-48a83b7f79ca}, !- Space Name
  Surface,                                !- Outside Boundary Condition
  {ced9915a-a5ba-4a48-9aa5-f99ee20fdd66}, !- Outside Boundary Condition Object
  NoSun,                                  !- Sun Exposure
  NoWind,                                 !- Wind Exposure
  ,                                       !- View Factor to Ground
  ,                                       !- Number of Vertices
  6.59383217256854, -11.3588643451371, 2.4384, !- X,Y,Z Vertex 1 {m}
  6.59383217256854, -11.3588643451371, 0, !- X,Y,Z Vertex 2 {m}
  6.59383217256854, 0, 0,                 !- X,Y,Z Vertex 3 {m}
  6.59383217256854, 0, 2.4384;            !- X,Y,Z Vertex 4 {m}

OS:Surface,
  {8694dc9d-0f74-469b-b95f-285d86e2a70c}, !- Handle
  Surface 5,                              !- Name
  Wall,                                   !- Surface Type
  ,                                       !- Construction Name
  {c47a6b43-bc34-435e-af0a-48a83b7f79ca}, !- Space Name
  Outdoors,                               !- Outside Boundary Condition
  ,                                       !- Outside Boundary Condition Object
  SunExposed,                             !- Sun Exposure
  WindExposed,                            !- Wind Exposure
  ,                                       !- View Factor to Ground
  ,                                       !- Number of Vertices
  1.8288, -13.1876643451371, 2.4384,      !- X,Y,Z Vertex 1 {m}
  1.8288, -13.1876643451371, 0,           !- X,Y,Z Vertex 2 {m}
  6.59383217256854, -13.1876643451371, 0, !- X,Y,Z Vertex 3 {m}
  6.59383217256854, -13.1876643451371, 2.4384; !- X,Y,Z Vertex 4 {m}

OS:Surface,
  {a8b1561e-87d3-4bcc-9af6-c504db7776bb}, !- Handle
  Surface 6,                              !- Name
  Wall,                                   !- Surface Type
  ,                                       !- Construction Name
  {c47a6b43-bc34-435e-af0a-48a83b7f79ca}, !- Space Name
  Outdoors,                               !- Outside Boundary Condition
  ,                                       !- Outside Boundary Condition Object
  SunExposed,                             !- Sun Exposure
  WindExposed,                            !- Wind Exposure
  ,                                       !- View Factor to Ground
  ,                                       !- Number of Vertices
  1.8288, -11.3588643451371, 2.4384,      !- X,Y,Z Vertex 1 {m}
  1.8288, -11.3588643451371, 0,           !- X,Y,Z Vertex 2 {m}
  1.8288, -13.1876643451371, 0,           !- X,Y,Z Vertex 3 {m}
  1.8288, -13.1876643451371, 2.4384;      !- X,Y,Z Vertex 4 {m}

OS:Surface,
  {7e7de651-36ef-4af1-8a76-9bba24de6302}, !- Handle
  Surface 7,                              !- Name
  Wall,                                   !- Surface Type
  ,                                       !- Construction Name
  {c47a6b43-bc34-435e-af0a-48a83b7f79ca}, !- Space Name
  Outdoors,                               !- Outside Boundary Condition
  ,                                       !- Outside Boundary Condition Object
  SunExposed,                             !- Sun Exposure
  WindExposed,                            !- Wind Exposure
  ,                                       !- View Factor to Ground
  ,                                       !- Number of Vertices
  0, -11.3588643451371, 2.4384,           !- X,Y,Z Vertex 1 {m}
  0, -11.3588643451371, 0,                !- X,Y,Z Vertex 2 {m}
  1.8288, -11.3588643451371, 0,           !- X,Y,Z Vertex 3 {m}
  1.8288, -11.3588643451371, 2.4384;      !- X,Y,Z Vertex 4 {m}

OS:Surface,
  {81157dd7-da89-4895-ae66-6803447f1749}, !- Handle
  Surface 8,                              !- Name
  RoofCeiling,                            !- Surface Type
  ,                                       !- Construction Name
  {c47a6b43-bc34-435e-af0a-48a83b7f79ca}, !- Space Name
  Outdoors,                               !- Outside Boundary Condition
  ,                                       !- Outside Boundary Condition Object
  SunExposed,                             !- Sun Exposure
  WindExposed,                            !- Wind Exposure
  ,                                       !- View Factor to Ground
  ,                                       !- Number of Vertices
  1.8288, -11.3588643451371, 2.4384,      !- X,Y,Z Vertex 1 {m}
  1.8288, -13.1876643451371, 2.4384,      !- X,Y,Z Vertex 2 {m}
  6.59383217256854, -13.1876643451371, 2.4384, !- X,Y,Z Vertex 3 {m}
  6.59383217256854, 0, 2.4384,            !- X,Y,Z Vertex 4 {m}
  0, 0, 2.4384,                           !- X,Y,Z Vertex 5 {m}
  0, -11.3588643451371, 2.4384;           !- X,Y,Z Vertex 6 {m}

OS:ThermalZone,
  {d95a9c04-f48c-4f27-9ebe-a8a068e484d5}, !- Handle
  living zone|unit 2,                     !- Name
  ,                                       !- Multiplier
  ,                                       !- Ceiling Height {m}
  ,                                       !- Volume {m3}
  ,                                       !- Floor Area {m2}
  ,                                       !- Zone Inside Convection Algorithm
  ,                                       !- Zone Outside Convection Algorithm
  ,                                       !- Zone Conditioning Equipment List Name
  {acd88387-29a4-4e7c-9eb7-c7f8aeb9868e}, !- Zone Air Inlet Port List
  {b4556b7c-9a80-4bcc-a99d-b43ddfe628bf}, !- Zone Air Exhaust Port List
  {e9465212-e7d2-4453-9906-a43ce3398574}, !- Zone Air Node Name
  ,                                       !- Zone Return Air Node Name
  ,                                       !- Primary Daylighting Control Name
  ,                                       !- Fraction of Zone Controlled by Primary Daylighting Control
  ,                                       !- Secondary Daylighting Control Name
  ,                                       !- Fraction of Zone Controlled by Secondary Daylighting Control
  ,                                       !- Illuminance Map Name
  ,                                       !- Group Rendering Name
  ,                                       !- Thermostat Name
  No;                                     !- Use Ideal Air Loads

OS:Node,
  {9df50a14-981a-4380-a32b-ae4e69692e0b}, !- Handle
  Node 2,                                 !- Name
  {e9465212-e7d2-4453-9906-a43ce3398574}, !- Inlet Port
  ;                                       !- Outlet Port

OS:Connection,
  {e9465212-e7d2-4453-9906-a43ce3398574}, !- Handle
  {569e9206-e52b-465a-b4b1-fb336f612c50}, !- Name
  {d95a9c04-f48c-4f27-9ebe-a8a068e484d5}, !- Source Object
  11,                                     !- Outlet Port
  {9df50a14-981a-4380-a32b-ae4e69692e0b}, !- Target Object
  2;                                      !- Inlet Port

OS:PortList,
  {acd88387-29a4-4e7c-9eb7-c7f8aeb9868e}, !- Handle
  Port List 3,                            !- Name
  {d95a9c04-f48c-4f27-9ebe-a8a068e484d5}; !- HVAC Component

OS:PortList,
  {b4556b7c-9a80-4bcc-a99d-b43ddfe628bf}, !- Handle
  Port List 4,                            !- Name
  {d95a9c04-f48c-4f27-9ebe-a8a068e484d5}; !- HVAC Component

OS:Sizing:Zone,
  {5ac1d6fe-0f56-47e0-aad5-a6cb3e0041fc}, !- Handle
  {d95a9c04-f48c-4f27-9ebe-a8a068e484d5}, !- Zone or ZoneList Name
  SupplyAirTemperature,                   !- Zone Cooling Design Supply Air Temperature Input Method
  14,                                     !- Zone Cooling Design Supply Air Temperature {C}
  11.11,                                  !- Zone Cooling Design Supply Air Temperature Difference {deltaC}
  SupplyAirTemperature,                   !- Zone Heating Design Supply Air Temperature Input Method
  40,                                     !- Zone Heating Design Supply Air Temperature {C}
  11.11,                                  !- Zone Heating Design Supply Air Temperature Difference {deltaC}
  0.0085,                                 !- Zone Cooling Design Supply Air Humidity Ratio {kg-H2O/kg-air}
  0.008,                                  !- Zone Heating Design Supply Air Humidity Ratio {kg-H2O/kg-air}
  ,                                       !- Zone Heating Sizing Factor
  ,                                       !- Zone Cooling Sizing Factor
  DesignDay,                              !- Cooling Design Air Flow Method
  ,                                       !- Cooling Design Air Flow Rate {m3/s}
  ,                                       !- Cooling Minimum Air Flow per Zone Floor Area {m3/s-m2}
  ,                                       !- Cooling Minimum Air Flow {m3/s}
  ,                                       !- Cooling Minimum Air Flow Fraction
  DesignDay,                              !- Heating Design Air Flow Method
  ,                                       !- Heating Design Air Flow Rate {m3/s}
  ,                                       !- Heating Maximum Air Flow per Zone Floor Area {m3/s-m2}
  ,                                       !- Heating Maximum Air Flow {m3/s}
  ,                                       !- Heating Maximum Air Flow Fraction
  ,                                       !- Design Zone Air Distribution Effectiveness in Cooling Mode
  ,                                       !- Design Zone Air Distribution Effectiveness in Heating Mode
  No,                                     !- Account for Dedicated Outdoor Air System
  NeutralSupplyAir,                       !- Dedicated Outdoor Air System Control Strategy
  autosize,                               !- Dedicated Outdoor Air Low Setpoint Temperature for Design {C}
  autosize;                               !- Dedicated Outdoor Air High Setpoint Temperature for Design {C}

OS:ZoneHVAC:EquipmentList,
  {10746c98-16f2-4cbb-b763-827b20924970}, !- Handle
  Zone HVAC Equipment List 2,             !- Name
  {d95a9c04-f48c-4f27-9ebe-a8a068e484d5}; !- Thermal Zone

OS:Space,
  {577b2b31-9117-4987-a58f-594671a3f6f6}, !- Handle
  living space|unit 2,                    !- Name
  ,                                       !- Space Type Name
  ,                                       !- Default Construction Set Name
  ,                                       !- Default Schedule Set Name
  ,                                       !- Direction of Relative North {deg}
  ,                                       !- X Origin {m}
  ,                                       !- Y Origin {m}
  ,                                       !- Z Origin {m}
  ,                                       !- Building Story Name
  {d95a9c04-f48c-4f27-9ebe-a8a068e484d5}, !- Thermal Zone Name
  ,                                       !- Part of Total Floor Area
  ,                                       !- Design Specification Outdoor Air Object Name
  {7877f736-b75e-4c30-abd4-91ad164a7894}; !- Building Unit Name

OS:Surface,
  {e2564249-4f67-4239-baf5-d74ceec7afe0}, !- Handle
  Surface 9,                              !- Name
  Floor,                                  !- Surface Type
  ,                                       !- Construction Name
  {577b2b31-9117-4987-a58f-594671a3f6f6}, !- Space Name
  Ground,                                 !- Outside Boundary Condition
  ,                                       !- Outside Boundary Condition Object
  NoSun,                                  !- Sun Exposure
  NoWind,                                 !- Wind Exposure
  ,                                       !- View Factor to Ground
  ,                                       !- Number of Vertices
  0, 3.048, 0,                            !- X,Y,Z Vertex 1 {m}
  0, 16.2356643451371, 0,                 !- X,Y,Z Vertex 2 {m}
  4.76503217256854, 16.2356643451371, 0,  !- X,Y,Z Vertex 3 {m}
  4.76503217256854, 14.4068643451371, 0,  !- X,Y,Z Vertex 4 {m}
  6.59383217256854, 14.4068643451371, 0,  !- X,Y,Z Vertex 5 {m}
  6.59383217256854, 3.048, 0;             !- X,Y,Z Vertex 6 {m}

OS:Surface,
  {ae9bd579-a12c-4bbc-9402-df59330d5fc8}, !- Handle
  Surface 10,                             !- Name
  Wall,                                   !- Surface Type
  ,                                       !- Construction Name
  {577b2b31-9117-4987-a58f-594671a3f6f6}, !- Space Name
  Outdoors,                               !- Outside Boundary Condition
  ,                                       !- Outside Boundary Condition Object
  SunExposed,                             !- Sun Exposure
  WindExposed,                            !- Wind Exposure
  ,                                       !- View Factor to Ground
  ,                                       !- Number of Vertices
  0, 16.2356643451371, 2.4384,            !- X,Y,Z Vertex 1 {m}
  0, 16.2356643451371, 0,                 !- X,Y,Z Vertex 2 {m}
  0, 3.048, 0,                            !- X,Y,Z Vertex 3 {m}
  0, 3.048, 2.4384;                       !- X,Y,Z Vertex 4 {m}

OS:Surface,
  {00855731-053d-45a7-8597-0a2e30e84e51}, !- Handle
  Surface 11,                             !- Name
  Wall,                                   !- Surface Type
  ,                                       !- Construction Name
  {577b2b31-9117-4987-a58f-594671a3f6f6}, !- Space Name
  Outdoors,                               !- Outside Boundary Condition
  ,                                       !- Outside Boundary Condition Object
  SunExposed,                             !- Sun Exposure
  WindExposed,                            !- Wind Exposure
  ,                                       !- View Factor to Ground
  ,                                       !- Number of Vertices
  4.76503217256854, 16.2356643451371, 2.4384, !- X,Y,Z Vertex 1 {m}
  4.76503217256854, 16.2356643451371, 0,  !- X,Y,Z Vertex 2 {m}
  0, 16.2356643451371, 0,                 !- X,Y,Z Vertex 3 {m}
  0, 16.2356643451371, 2.4384;            !- X,Y,Z Vertex 4 {m}

OS:Surface,
  {e0a086e4-3e9e-4e1a-aab3-d700f0908a18}, !- Handle
  Surface 12,                             !- Name
  Wall,                                   !- Surface Type
  ,                                       !- Construction Name
  {577b2b31-9117-4987-a58f-594671a3f6f6}, !- Space Name
  Outdoors,                               !- Outside Boundary Condition
  ,                                       !- Outside Boundary Condition Object
  SunExposed,                             !- Sun Exposure
  WindExposed,                            !- Wind Exposure
  ,                                       !- View Factor to Ground
  ,                                       !- Number of Vertices
  4.76503217256854, 14.4068643451371, 2.4384, !- X,Y,Z Vertex 1 {m}
  4.76503217256854, 14.4068643451371, 0,  !- X,Y,Z Vertex 2 {m}
  4.76503217256854, 16.2356643451371, 0,  !- X,Y,Z Vertex 3 {m}
  4.76503217256854, 16.2356643451371, 2.4384; !- X,Y,Z Vertex 4 {m}

OS:Surface,
  {922fb9e4-c5fa-43a7-b847-281deb659436}, !- Handle
  Surface 13,                             !- Name
  Wall,                                   !- Surface Type
  ,                                       !- Construction Name
  {577b2b31-9117-4987-a58f-594671a3f6f6}, !- Space Name
  Outdoors,                               !- Outside Boundary Condition
  ,                                       !- Outside Boundary Condition Object
  SunExposed,                             !- Sun Exposure
  WindExposed,                            !- Wind Exposure
  ,                                       !- View Factor to Ground
  ,                                       !- Number of Vertices
  6.59383217256854, 14.4068643451371, 2.4384, !- X,Y,Z Vertex 1 {m}
  6.59383217256854, 14.4068643451371, 0,  !- X,Y,Z Vertex 2 {m}
  4.76503217256854, 14.4068643451371, 0,  !- X,Y,Z Vertex 3 {m}
  4.76503217256854, 14.4068643451371, 2.4384; !- X,Y,Z Vertex 4 {m}

OS:Surface,
  {fe1b4a37-7e78-4370-8d94-9d51379d24a2}, !- Handle
  Surface 14,                             !- Name
  Wall,                                   !- Surface Type
  ,                                       !- Construction Name
  {577b2b31-9117-4987-a58f-594671a3f6f6}, !- Space Name
  Surface,                                !- Outside Boundary Condition
  {9f3d59c2-18fb-426c-a22f-a8e736e7f1f1}, !- Outside Boundary Condition Object
  NoSun,                                  !- Sun Exposure
  NoWind,                                 !- Wind Exposure
  ,                                       !- View Factor to Ground
  ,                                       !- Number of Vertices
  6.59383217256854, 3.048, 2.4384,        !- X,Y,Z Vertex 1 {m}
  6.59383217256854, 3.048, 0,             !- X,Y,Z Vertex 2 {m}
  6.59383217256854, 14.4068643451371, 0,  !- X,Y,Z Vertex 3 {m}
  6.59383217256854, 14.4068643451371, 2.4384; !- X,Y,Z Vertex 4 {m}

OS:Surface,
  {4ba1af80-5eed-4f42-bbec-8f73b65d6a35}, !- Handle
  Surface 15,                             !- Name
  Wall,                                   !- Surface Type
  ,                                       !- Construction Name
  {577b2b31-9117-4987-a58f-594671a3f6f6}, !- Space Name