!- NOTE: Auto-generated from /test/osw_files/SFA_4units_1story_FB_UA_Denver_FlatRoof.osw

OS:Version,
  {9641fcb0-950f-4c88-a521-741c8b49a4d5}, !- Handle
  1.14.0;                                  !- Version Identifier

OS:Building,
  {bf305633-c5a1-4881-9edf-ca5e1a8e1274}, !- Handle
  Building,                               !- Name
  ,                                       !- Building Sector Type
  ,                                       !- North Axis {deg}
  ,                                       !- Nominal Floor to Floor Height {m}
  ,                                       !- Space Type Name
  ,                                       !- Default Construction Set Name
  ,                                       !- Default Schedule Set Name
  2,                                      !- Standards Number of Stories
  1,                                      !- Standards Number of Above Ground Stories
  singlefamilyttached,                    !- Standards Building Type
  4;                                      !- Standards Number of Living Units

OS:YearDescription,
  {513d8dda-86cb-442a-b01c-1f7f0e0ac70e}; !- Handle

OS:SimulationControl,
  {2c487a4c-bac9-4ac5-b669-1e49d9da7c2b}, !- Handle
  ,                                       !- Do Zone Sizing Calculation
  ,                                       !- Do System Sizing Calculation
  ,                                       !- Do Plant Sizing Calculation
  No,                                     !- Run Simulation for Sizing Periods
  ;                                       !- Run Simulation for Weather File Run Periods

OS:Timestep,
  {4ebc9f1e-4707-402e-9844-67eb1ffbd522}, !- Handle
  6;                                      !- Number of Timesteps per Hour

OS:RunPeriod,
  {28df894d-6af9-4fb8-8f56-df1753344aa3}, !- Handle
  Run Period,                             !- Name
  1,                                      !- Begin Month
  1,                                      !- Begin Day of Month
  12,                                     !- End Month
  31,                                     !- End Day of Month
  ,                                       !- Use Weather File Holidays and Special Days
  ,                                       !- Use Weather File Daylight Saving Period
  ,                                       !- Apply Weekend Holiday Rule
  ,                                       !- Use Weather File Rain Indicators
  ,                                       !- Use Weather File Snow Indicators
  ;                                       !- Number of Times Runperiod to be Repeated

OS:Sizing:Parameters,
  {dde5af6f-7923-4600-a28a-7556673a0266}, !- Handle
  1.0,                                    !- Heating Sizing Factor
  1.0;                                    !- Cooling Sizing Factor

OS:ShadowCalculation,
  {ca758bea-4416-4626-9bba-3d8795c79bd6}, !- Handle
  20,                                     !- Calculation Frequency
  200;                                    !- Maximum Figures in Shadow Overlap Calculations

OS:SurfaceConvectionAlgorithm:Inside,
  {aaabfc36-718a-4ab0-b622-f186ebb45230}, !- Handle
  TARP;                                   !- Algorithm

OS:SurfaceConvectionAlgorithm:Outside,
  {9a0a9f6f-4bbd-4b12-a121-9492a1fcd7d6}, !- Handle
  DOE-2;                                  !- Algorithm

OS:HeatBalanceAlgorithm,
  {9d93e563-e1e0-46d7-9e39-d1c8aceb7212}, !- Handle
  ConductionTransferFunction,             !- Algorithm
  200;                                    !- Surface Temperature Upper Limit {C}

OS:ZoneCapacitanceMultiplier:ResearchSpecial,
  {6bfced16-b16f-47f6-8223-f7e267d75d19}, !- Handle
  ,                                       !- Temperature Capacity Multiplier
  15,                                     !- Humidity Capacity Multiplier
  ;                                       !- Carbon Dioxide Capacity Multiplier

OS:ThermalZone,
  {6d718c55-70f3-4ed0-b0d2-6cd5315014bf}, !- Handle
  living zone,                            !- Name
  ,                                       !- Multiplier
  ,                                       !- Ceiling Height {m}
  ,                                       !- Volume {m3}
  ,                                       !- Floor Area {m2}
  ,                                       !- Zone Inside Convection Algorithm
  ,                                       !- Zone Outside Convection Algorithm
  ,                                       !- Zone Conditioning Equipment List Name
  {0b92cdee-628d-4f81-a44b-234baf35942c}, !- Zone Air Inlet Port List
  {1853128e-fb9d-4fb5-89f9-12e70ab8cb4e}, !- Zone Air Exhaust Port List
  {29c1a2c6-ca19-4ea9-b13a-32b9a9cbf634}, !- Zone Air Node Name
  ,                                       !- Zone Return Air Node Name
  ,                                       !- Primary Daylighting Control Name
  ,                                       !- Fraction of Zone Controlled by Primary Daylighting Control
  ,                                       !- Secondary Daylighting Control Name
  ,                                       !- Fraction of Zone Controlled by Secondary Daylighting Control
  ,                                       !- Illuminance Map Name
  ,                                       !- Group Rendering Name
  ,                                       !- Thermostat Name
  No;                                     !- Use Ideal Air Loads

OS:Node,
  {e62d1b11-4785-4d09-888a-240f10b62246}, !- Handle
  Node 1,                                 !- Name
  {29c1a2c6-ca19-4ea9-b13a-32b9a9cbf634}, !- Inlet Port
  ;                                       !- Outlet Port

OS:Connection,
  {29c1a2c6-ca19-4ea9-b13a-32b9a9cbf634}, !- Handle
  {6aa9daa5-37ce-4a62-b994-b63a49696d5f}, !- Name
  {6d718c55-70f3-4ed0-b0d2-6cd5315014bf}, !- Source Object
  11,                                     !- Outlet Port
  {e62d1b11-4785-4d09-888a-240f10b62246}, !- Target Object
  2;                                      !- Inlet Port

OS:PortList,
  {0b92cdee-628d-4f81-a44b-234baf35942c}, !- Handle
  Port List 1,                            !- Name
  {6d718c55-70f3-4ed0-b0d2-6cd5315014bf}; !- HVAC Component

OS:PortList,
  {1853128e-fb9d-4fb5-89f9-12e70ab8cb4e}, !- Handle
  Port List 2,                            !- Name
  {6d718c55-70f3-4ed0-b0d2-6cd5315014bf}; !- HVAC Component

OS:Sizing:Zone,
  {64cdb3e5-66f6-4ea7-a517-230a4da4d5e5}, !- Handle
  {6d718c55-70f3-4ed0-b0d2-6cd5315014bf}, !- Zone or ZoneList Name
  SupplyAirTemperature,                   !- Zone Cooling Design Supply Air Temperature Input Method
  14,                                     !- Zone Cooling Design Supply Air Temperature {C}
  11.11,                                  !- Zone Cooling Design Supply Air Temperature Difference {deltaC}
  SupplyAirTemperature,                   !- Zone Heating Design Supply Air Temperature Input Method
  40,                                     !- Zone Heating Design Supply Air Temperature {C}
  11.11,                                  !- Zone Heating Design Supply Air Temperature Difference {deltaC}
  0.0085,                                 !- Zone Cooling Design Supply Air Humidity Ratio {kg-H2O/kg-air}
  0.008,                                  !- Zone Heating Design Supply Air Humidity Ratio {kg-H2O/kg-air}
  ,                                       !- Zone Heating Sizing Factor
  ,                                       !- Zone Cooling Sizing Factor
  DesignDay,                              !- Cooling Design Air Flow Method
  ,                                       !- Cooling Design Air Flow Rate {m3/s}
  ,                                       !- Cooling Minimum Air Flow per Zone Floor Area {m3/s-m2}
  ,                                       !- Cooling Minimum Air Flow {m3/s}
  ,                                       !- Cooling Minimum Air Flow Fraction
  DesignDay,                              !- Heating Design Air Flow Method
  ,                                       !- Heating Design Air Flow Rate {m3/s}
  ,                                       !- Heating Maximum Air Flow per Zone Floor Area {m3/s-m2}
  ,                                       !- Heating Maximum Air Flow {m3/s}
  ,                                       !- Heating Maximum Air Flow Fraction
  ,                                       !- Design Zone Air Distribution Effectiveness in Cooling Mode
  ,                                       !- Design Zone Air Distribution Effectiveness in Heating Mode
  No,                                     !- Account for Dedicated Outdoor Air System
  NeutralSupplyAir,                       !- Dedicated Outdoor Air System Control Strategy
  autosize,                               !- Dedicated Outdoor Air Low Setpoint Temperature for Design {C}
  autosize;                               !- Dedicated Outdoor Air High Setpoint Temperature for Design {C}

OS:ZoneHVAC:EquipmentList,
  {2e95aac9-60b6-4df4-96d0-8122b24f2c59}, !- Handle
  Zone HVAC Equipment List 1,             !- Name
  {6d718c55-70f3-4ed0-b0d2-6cd5315014bf}; !- Thermal Zone

OS:Space,
  {2d98f44f-8aea-4613-a674-6dbe1f06e7d1}, !- Handle
  living space,                           !- Name
  ,                                       !- Space Type Name
  ,                                       !- Default Construction Set Name
  ,                                       !- Default Schedule Set Name
  ,                                       !- Direction of Relative North {deg}
  ,                                       !- X Origin {m}
  ,                                       !- Y Origin {m}
  ,                                       !- Z Origin {m}
  ,                                       !- Building Story Name
  {6d718c55-70f3-4ed0-b0d2-6cd5315014bf}, !- Thermal Zone Name
  ,                                       !- Part of Total Floor Area
  ,                                       !- Design Specification Outdoor Air Object Name
  {ca1ca6d3-0955-42f3-b3ec-45642743041e}; !- Building Unit Name

OS:Surface,
  {774fdea7-8e81-41e5-b1d3-bb7023a8d1c5}, !- Handle
  Surface 1,                              !- Name
  Floor,                                  !- Surface Type
  ,                                       !- Construction Name
  {2d98f44f-8aea-4613-a674-6dbe1f06e7d1}, !- Space Name
  Surface,                                !- Outside Boundary Condition
  {bb63f1ba-79da-4ee9-a81e-7ace8ae47b16}, !- Outside Boundary Condition Object
  NoSun,                                  !- Sun Exposure
  NoWind,                                 !- Wind Exposure
  ,                                       !- View Factor to Ground
  ,                                       !- Number of Vertices
  0, -9.144, 0,                           !- X,Y,Z Vertex 1 {m}
  0, 0, 0,                                !- X,Y,Z Vertex 2 {m}
  4.572, 0, 0,                            !- X,Y,Z Vertex 3 {m}
  4.572, -9.144, 0;                       !- X,Y,Z Vertex 4 {m}

OS:Surface,
  {96631c25-539f-45eb-bc7c-f88096f9deb2}, !- Handle
  Surface 2,                              !- Name
  Wall,                                   !- Surface Type
  ,                                       !- Construction Name
  {2d98f44f-8aea-4613-a674-6dbe1f06e7d1}, !- Space Name
  Outdoors,                               !- Outside Boundary Condition
  ,                                       !- Outside Boundary Condition Object
  SunExposed,                             !- Sun Exposure
  WindExposed,                            !- Wind Exposure
  ,                                       !- View Factor to Ground
  ,                                       !- Number of Vertices
  0, 0, 2.4384,                           !- X,Y,Z Vertex 1 {m}
  0, 0, 0,                                !- X,Y,Z Vertex 2 {m}
  0, -9.144, 0,                           !- X,Y,Z Vertex 3 {m}
  0, -9.144, 2.4384;                      !- X,Y,Z Vertex 4 {m}

OS:Surface,
  {eb95b674-622b-48b4-9de6-03b468f45cf3}, !- Handle
  Surface 3,                              !- Name
  Wall,                                   !- Surface Type
  ,                                       !- Construction Name
  {2d98f44f-8aea-4613-a674-6dbe1f06e7d1}, !- Space Name
  Outdoors,                               !- Outside Boundary Condition
  ,                                       !- Outside Boundary Condition Object
  SunExposed,                             !- Sun Exposure
  WindExposed,                            !- Wind Exposure
  ,                                       !- View Factor to Ground
  ,                                       !- Number of Vertices
  4.572, 0, 2.4384,                       !- X,Y,Z Vertex 1 {m}
  4.572, 0, 0,                            !- X,Y,Z Vertex 2 {m}
  0, 0, 0,                                !- X,Y,Z Vertex 3 {m}
  0, 0, 2.4384;                           !- X,Y,Z Vertex 4 {m}

OS:Surface,
  {87879465-7668-4e3e-b90b-ed68d11899ed}, !- Handle
  Surface 4,                              !- Name
  Wall,                                   !- Surface Type
  ,                                       !- Construction Name
  {2d98f44f-8aea-4613-a674-6dbe1f06e7d1}, !- Space Name
  Surface,                                !- Outside Boundary Condition
  {0e24b0a2-7b8b-480d-9f24-38b1a2c33555}, !- Outside Boundary Condition Object
  NoSun,                                  !- Sun Exposure
  NoWind,                                 !- Wind Exposure
  ,                                       !- View Factor to Ground
  ,                                       !- Number of Vertices
  4.572, -9.144, 2.4384,                  !- X,Y,Z Vertex 1 {m}
  4.572, -9.144, 0,                       !- X,Y,Z Vertex 2 {m}
  4.572, 0, 0,                            !- X,Y,Z Vertex 3 {m}
  4.572, 0, 2.4384;                       !- X,Y,Z Vertex 4 {m}

OS:Surface,
  {84ab0d1e-3bf5-4ac8-95cf-eb1499e9c87f}, !- Handle
  Surface 5,                              !- Name
  Wall,                                   !- Surface Type
  ,                                       !- Construction Name
  {2d98f44f-8aea-4613-a674-6dbe1f06e7d1}, !- Space Name
  Outdoors,                               !- Outside Boundary Condition
  ,                                       !- Outside Boundary Condition Object
  SunExposed,                             !- Sun Exposure
  WindExposed,                            !- Wind Exposure
  ,                                       !- View Factor to Ground
  ,                                       !- Number of Vertices
  0, -9.144, 2.4384,                      !- X,Y,Z Vertex 1 {m}
  0, -9.144, 0,                           !- X,Y,Z Vertex 2 {m}
  4.572, -9.144, 0,                       !- X,Y,Z Vertex 3 {m}
  4.572, -9.144, 2.4384;                  !- X,Y,Z Vertex 4 {m}

OS:Surface,
  {b8d687f9-b5a9-49bb-97b9-1ae96c971885}, !- Handle
  Surface 6,                              !- Name
  RoofCeiling,                            !- Surface Type
  ,                                       !- Construction Name
  {2d98f44f-8aea-4613-a674-6dbe1f06e7d1}, !- Space Name
  Outdoors,                               !- Outside Boundary Condition
  ,                                       !- Outside Boundary Condition Object
  SunExposed,                             !- Sun Exposure
  WindExposed,                            !- Wind Exposure
  ,                                       !- View Factor to Ground
  ,                                       !- Number of Vertices
  4.572, -9.144, 2.4384,                  !- X,Y,Z Vertex 1 {m}
  4.572, 0, 2.4384,                       !- X,Y,Z Vertex 2 {m}
  0, 0, 2.4384,                           !- X,Y,Z Vertex 3 {m}
  0, -9.144, 2.4384;                      !- X,Y,Z Vertex 4 {m}

OS:ThermalZone,
  {97bcf4cd-9564-442e-8b0c-bfa89b8f5358}, !- Handle
  living zone|unit 2,                     !- Name
  ,                                       !- Multiplier
  ,                                       !- Ceiling Height {m}
  ,                                       !- Volume {m3}
  ,                                       !- Floor Area {m2}
  ,                                       !- Zone Inside Convection Algorithm
  ,                                       !- Zone Outside Convection Algorithm
  ,                                       !- Zone Conditioning Equipment List Name
  {3520839c-6506-48e7-a92a-435122f12d1f}, !- Zone Air Inlet Port List
  {c60c6db0-158c-4251-8f73-b698acd2afb5}, !- Zone Air Exhaust Port List
  {f249b348-f9e3-4113-b2f2-80c5f653a249}, !- Zone Air Node Name
  ,                                       !- Zone Return Air Node Name
  ,                                       !- Primary Daylighting Control Name
  ,                                       !- Fraction of Zone Controlled by Primary Daylighting Control
  ,                                       !- Secondary Daylighting Control Name
  ,                                       !- Fraction of Zone Controlled by Secondary Daylighting Control
  ,                                       !- Illuminance Map Name
  ,                                       !- Group Rendering Name
  ,                                       !- Thermostat Name
  No;                                     !- Use Ideal Air Loads

OS:Node,
  {31a16fc8-2426-4aa8-ad59-05e2eda25ae5}, !- Handle
  Node 2,                                 !- Name
  {f249b348-f9e3-4113-b2f2-80c5f653a249}, !- Inlet Port
  ;                                       !- Outlet Port

OS:Connection,
  {f249b348-f9e3-4113-b2f2-80c5f653a249}, !- Handle
  {1f80f406-9038-4fe9-8bec-16ab04829693}, !- Name
  {97bcf4cd-9564-442e-8b0c-bfa89b8f5358}, !- Source Object
  11,                                     !- Outlet Port
  {31a16fc8-2426-4aa8-ad59-05e2eda25ae5}, !- Target Object
  2;                                      !- Inlet Port

OS:PortList,
  {3520839c-6506-48e7-a92a-435122f12d1f}, !- Handle
  Port List 3,                            !- Name
  {97bcf4cd-9564-442e-8b0c-bfa89b8f5358}; !- HVAC Component

OS:PortList,
  {c60c6db0-158c-4251-8f73-b698acd2afb5}, !- Handle
  Port List 4,                            !- Name
  {97bcf4cd-9564-442e-8b0c-bfa89b8f5358}; !- HVAC Component

OS:Sizing:Zone,
  {e61d230d-0780-4593-bebc-537a2c2d87ee}, !- Handle
  {97bcf4cd-9564-442e-8b0c-bfa89b8f5358}, !- Zone or ZoneList Name
  SupplyAirTemperature,                   !- Zone Cooling Design Supply Air Temperature Input Method
  14,                                     !- Zone Cooling Design Supply Air Temperature {C}
  11.11,                                  !- Zone Cooling Design Supply Air Temperature Difference {deltaC}
  SupplyAirTemperature,                   !- Zone Heating Design Supply Air Temperature Input Method
  40,                                     !- Zone Heating Design Supply Air Temperature {C}
  11.11,                                  !- Zone Heating Design Supply Air Temperature Difference {deltaC}
  0.0085,                                 !- Zone Cooling Design Supply Air Humidity Ratio {kg-H2O/kg-air}
  0.008,                                  !- Zone Heating Design Supply Air Humidity Ratio {kg-H2O/kg-air}
  ,                                       !- Zone Heating Sizing Factor
  ,                                       !- Zone Cooling Sizing Factor
  DesignDay,                              !- Cooling Design Air Flow Method
  ,                                       !- Cooling Design Air Flow Rate {m3/s}
  ,                                       !- Cooling Minimum Air Flow per Zone Floor Area {m3/s-m2}
  ,                                       !- Cooling Minimum Air Flow {m3/s}
  ,                                       !- Cooling Minimum Air Flow Fraction
  DesignDay,                              !- Heating Design Air Flow Method
  ,                                       !- Heating Design Air Flow Rate {m3/s}
  ,                                       !- Heating Maximum Air Flow per Zone Floor Area {m3/s-m2}
  ,                                       !- Heating Maximum Air Flow {m3/s}
  ,                                       !- Heating Maximum Air Flow Fraction
  ,                                       !- Design Zone Air Distribution Effectiveness in Cooling Mode
  ,                                       !- Design Zone Air Distribution Effectiveness in Heating Mode
  No,                                     !- Account for Dedicated Outdoor Air System
  NeutralSupplyAir,                       !- Dedicated Outdoor Air System Control Strategy
  autosize,                               !- Dedicated Outdoor Air Low Setpoint Temperature for Design {C}
  autosize;                               !- Dedicated Outdoor Air High Setpoint Temperature for Design {C}

OS:ZoneHVAC:EquipmentList,
  {c293deb7-3467-4cd2-83b1-991943f5e37f}, !- Handle
  Zone HVAC Equipment List 2,             !- Name
  {97bcf4cd-9564-442e-8b0c-bfa89b8f5358}; !- Thermal Zone

OS:Space,
  {698c0b61-93c7-4e72-9a89-066aed7bc029}, !- Handle
  living space|unit 2,                    !- Name
  ,                                       !- Space Type Name
  ,                                       !- Default Construction Set Name
  ,                                       !- Default Schedule Set Name
  -0,                                     !- Direction of Relative North {deg}
  0,                                      !- X Origin {m}
  0,                                      !- Y Origin {m}
  0,                                      !- Z Origin {m}
  ,                                       !- Building Story Name
  {97bcf4cd-9564-442e-8b0c-bfa89b8f5358}, !- Thermal Zone Name
  ,                                       !- Part of Total Floor Area
  ,                                       !- Design Specification Outdoor Air Object Name
  {db71daa4-ca8a-42bf-8016-15c5e998bde0}; !- Building Unit Name

OS:Surface,
  {705425c8-bb72-4389-81c4-c7c90011f84e}, !- Handle
  Surface 7,                              !- Name
  Floor,                                  !- Surface Type
  ,                                       !- Construction Name
  {698c0b61-93c7-4e72-9a89-066aed7bc029}, !- Space Name
  Surface,                                !- Outside Boundary Condition
  {9d0a967e-22bf-444f-ac8d-dd504f876401}, !- Outside Boundary Condition Object
  NoSun,                                  !- Sun Exposure
  NoWind,                                 !- Wind Exposure
  ,                                       !- View Factor to Ground
  ,                                       !- Number of Vertices
  4.572, -9.144, 0,                       !- X,Y,Z Vertex 1 {m}
  4.572, 0, 0,                            !- X,Y,Z Vertex 2 {m}
  9.144, 0, 0,                            !- X,Y,Z Vertex 3 {m}
  9.144, -9.144, 0;                       !- X,Y,Z Vertex 4 {m}

OS:Surface,
  {0e24b0a2-7b8b-480d-9f24-38b1a2c33555}, !- Handle
  Surface 8,                              !- Name
  Wall,                                   !- Surface Type
  ,                                       !- Construction Name
  {698c0b61-93c7-4e72-9a89-066aed7bc029}, !- Space Name
  Surface,                                !- Outside Boundary Condition
  {87879465-7668-4e3e-b90b-ed68d11899ed}, !- Outside Boundary Condition Object
  NoSun,                                  !- Sun Exposure
  NoWind,                                 !- Wind Exposure
  ,                                       !- View Factor to Ground
  ,                                       !- Number of Vertices
  4.572, 0, 2.4384,                       !- X,Y,Z Vertex 1 {m}
  4.572, 0, 0,                            !- X,Y,Z Vertex 2 {m}
  4.572, -9.144, 0,                       !- X,Y,Z Vertex 3 {m}
  4.572, -9.144, 2.4384;                  !- X,Y,Z Vertex 4 {m}

OS:Surface,
  {3406a8a6-302b-4a7f-a04b-aa445e2c1c44}, !- Handle
  Surface 9,                              !- Name
  Wall,                                   !- Surface Type
  ,                                       !- Construction Name
  {698c0b61-93c7-4e72-9a89-066aed7bc029}, !- Space Name
  Outdoors,                               !- Outside Boundary Condition
  ,                                       !- Outside Boundary Condition Object
  SunExposed,                             !- Sun Exposure
  WindExposed,                            !- Wind Exposure
  ,                                       !- View Factor to Ground
  ,                                       !- Number of Vertices
  9.144, 0, 2.4384,                       !- X,Y,Z Vertex 1 {m}
  9.144, 0, 0,                            !- X,Y,Z Vertex 2 {m}
  4.572, 0, 0,                            !- X,Y,Z Vertex 3 {m}
  4.572, 0, 2.4384;                       !- X,Y,Z Vertex 4 {m}

OS:Surface,
  {04531ee2-040d-4fa6-b37e-b172b684a92b}, !- Handle
  Surface 10,                             !- Name
  Wall,                                   !- Surface Type
  ,                                       !- Construction Name
  {698c0b61-93c7-4e72-9a89-066aed7bc029}, !- Space Name
  Surface,                                !- Outside Boundary Condition
  {40972ae7-3fc4-44fd-ba42-523253a2446c}, !- Outside Boundary Condition Object
  NoSun,                                  !- Sun Exposure
  NoWind,                                 !- Wind Exposure
  ,                                       !- View Factor to Ground
  ,                                       !- Number of Vertices
  9.144, -9.144, 2.4384,                  !- X,Y,Z Vertex 1 {m}
  9.144, -9.144, 0,                       !- X,Y,Z Vertex 2 {m}
  9.144, 0, 0,                            !- X,Y,Z Vertex 3 {m}
  9.144, 0, 2.4384;                       !- X,Y,Z Vertex 4 {m}

OS:Surface,
  {de4e42d2-9d95-443c-aea9-f7370a283d79}, !- Handle
  Surface 11,                             !- Name
  Wall,                                   !- Surface Type
  ,                                       !- Construction Name
  {698c0b61-93c7-4e72-9a89-066aed7bc029}, !- Space Name
  Outdoors,                               !- Outside Boundary Condition
  ,                                       !- Outside Boundary Condition Object
  SunExposed,                             !- Sun Exposure
  WindExposed,                            !- Wind Exposure
  ,                                       !- View Factor to Ground
  ,                                       !- Number of Vertices
  4.572, -9.144, 2.4384,                  !- X,Y,Z Vertex 1 {m}
  4.572, -9.144, 0,                       !- X,Y,Z Vertex 2 {m}
  9.144, -9.144, 0,                       !- X,Y,Z Vertex 3 {m}
  9.144, -9.144, 2.4384;                  !- X,Y,Z Vertex 4 {m}

OS:Surface,
  {420879fa-9af0-4d15-b8e6-58261ad9aabb}, !- Handle
  Surface 12,                             !- Name
  RoofCeiling,                            !- Surface Type
  ,                                       !- Construction Name
  {698c0b61-93c7-4e72-9a89-066aed7bc029}, !- Space Name
  Outdoors,                               !- Outside Boundary Condition
  ,                                       !- Outside Boundary Condition Object
  SunExposed,                             !- Sun Exposure
  WindExposed,                            !- Wind Exposure
  ,                                       !- View Factor to Ground
  ,                                       !- Number of Vertices
  9.144, -9.144, 2.4384,                  !- X,Y,Z Vertex 1 {m}
  9.144, 0, 2.4384,                       !- X,Y,Z Vertex 2 {m}
  4.572, 0, 2.4384,                       !- X,Y,Z Vertex 3 {m}
  4.572, -9.144, 2.4384;                  !- X,Y,Z Vertex 4 {m}

OS:ThermalZone,
  {8ecf9144-4aa8-4946-89c5-91e3e0c1d0a3}, !- Handle
  living zone|unit 3,                     !- Name
  ,                                       !- Multiplier
  ,                                       !- Ceiling Height {m}
  ,                                       !- Volume {m3}
  ,                                       !- Floor Area {m2}
  ,                                       !- Zone Inside Convection Algorithm
  ,                                       !- Zone Outside Convection Algorithm
  ,                                       !- Zone Conditioning Equipment List Name
  {a398b763-8120-41d1-b00d-bf104319cb60}, !- Zone Air Inlet Port List
  {b0b481bd-1595-4b7d-a6e3-865f9d3be2e9}, !- Zone Air Exhaust Port List
  {b038540b-5160-4d89-8170-fbb3f25fd281}, !- Zone Air Node Name
  ,                                       !- Zone Return Air Node Name
  ,                                       !- Primary Daylighting Control Name
  ,                                       !- Fraction of Zone Controlled by Primary Daylighting Control
  ,                                       !- Secondary Daylighting Control Name
  ,                                       !- Fraction of Zone Controlled by Secondary Daylighting Control
  ,                                       !- Illuminance Map Name
  ,                                       !- Group Rendering Name
  ,                                       !- Thermostat Name
  No;                                     !- Use Ideal Air Loads

OS:Node,
  {5d2d9911-3514-4d80-b433-0557aef08a0c}, !- Handle
  Node 3,                                 !- Name
  {b038540b-5160-4d89-8170-fbb3f25fd281}, !- Inlet Port
  ;                                       !- Outlet Port

OS:Connection,
  {b038540b-5160-4d89-8170-fbb3f25fd281}, !- Handle
  {59059b36-440d-4849-b0df-ee4b01699c65}, !- Name
  {8ecf9144-4aa8-4946-89c5-91e3e0c1d0a3}, !- Source Object
  11,                                     !- Outlet Port
  {5d2d9911-3514-4d80-b433-0557aef08a0c}, !- Target Object
  2;                                      !- Inlet Port

OS:PortList,
  {a398b763-8120-41d1-b00d-bf104319cb60}, !- Handle
  Port List 5,                            !- Name
  {8ecf9144-4aa8-4946-89c5-91e3e0c1d0a3}; !- HVAC Component

OS:PortList,
  {b0b481bd-1595-4b7d-a6e3-865f9d3be2e9}, !- Handle
  Port List 6,                            !- Name
  {8ecf9144-4aa8-4946-89c5-91e3e0c1d0a3}; !- HVAC Component

OS:Sizing:Zone,
  {a8076ab6-a7d7-464f-b5f7-3219d1a63689}, !- Handle
  {8ecf9144-4aa8-4946-89c5-91e3e0c1d0a3}, !- Zone or ZoneList Name