!- NOTE: Auto-generated from /test/osw_files/SFD_2000sqft_2story_SL_UA_Denver_HipRoof_AspectRatioHalf.osw

OS:Version,
  {beb77b7c-736e-4e74-b01b-f3dc52d8e6b1}, !- Handle
  2.1.0;                                  !- Version Identifier

OS:Building,
  {bf305633-c5a1-4881-9edf-ca5e1a8e1274}, !- Handle
  Building,                               !- Name
  ,                                       !- Building Sector Type
  ,                                       !- North Axis {deg}
  ,                                       !- Nominal Floor to Floor Height {m}
  ,                                       !- Space Type Name
  ,                                       !- Default Construction Set Name
  ,                                       !- Default Schedule Set Name
  2,                                      !- Standards Number of Stories
  2,                                      !- Standards Number of Above Ground Stories
  singlefamilydetached,                   !- Standards Building Type
  1;                                      !- Standards Number of Living Units

OS:YearDescription,
  {513d8dda-86cb-442a-b01c-1f7f0e0ac70e}; !- Handle

OS:SimulationControl,
  {2c487a4c-bac9-4ac5-b669-1e49d9da7c2b}, !- Handle
  ,                                       !- Do Zone Sizing Calculation
  ,                                       !- Do System Sizing Calculation
  ,                                       !- Do Plant Sizing Calculation
  No,                                     !- Run Simulation for Sizing Periods
  ;                                       !- Run Simulation for Weather File Run Periods

OS:Timestep,
  {4ebc9f1e-4707-402e-9844-67eb1ffbd522}, !- Handle
  6;                                      !- Number of Timesteps per Hour

OS:RunPeriod,
  {28df894d-6af9-4fb8-8f56-df1753344aa3}, !- Handle
  Run Period,                             !- Name
  1,                                      !- Begin Month
  1,                                      !- Begin Day of Month
  12,                                     !- End Month
  31,                                     !- End Day of Month
  ,                                       !- Use Weather File Holidays and Special Days
  ,                                       !- Use Weather File Daylight Saving Period
  ,                                       !- Apply Weekend Holiday Rule
  ,                                       !- Use Weather File Rain Indicators
  ,                                       !- Use Weather File Snow Indicators
  ;                                       !- Number of Times Runperiod to be Repeated

OS:Sizing:Parameters,
  {dde5af6f-7923-4600-a28a-7556673a0266}, !- Handle
  1.0,                                    !- Heating Sizing Factor
  1.0;                                    !- Cooling Sizing Factor

OS:ShadowCalculation,
  {ca758bea-4416-4626-9bba-3d8795c79bd6}, !- Handle
  20,                                     !- Calculation Frequency
  200;                                    !- Maximum Figures in Shadow Overlap Calculations

OS:SurfaceConvectionAlgorithm:Inside,
  {aaabfc36-718a-4ab0-b622-f186ebb45230}, !- Handle
  TARP;                                   !- Algorithm

OS:SurfaceConvectionAlgorithm:Outside,
  {9a0a9f6f-4bbd-4b12-a121-9492a1fcd7d6}, !- Handle
  DOE-2;                                  !- Algorithm

OS:HeatBalanceAlgorithm,
  {9d93e563-e1e0-46d7-9e39-d1c8aceb7212}, !- Handle
  ConductionTransferFunction,             !- Algorithm
  200;                                    !- Surface Temperature Upper Limit {C}

OS:ZoneCapacitanceMultiplier:ResearchSpecial,
  {6bfced16-b16f-47f6-8223-f7e267d75d19}, !- Handle
  ,                                       !- Temperature Capacity Multiplier
  15,                                     !- Humidity Capacity Multiplier
  ;                                       !- Carbon Dioxide Capacity Multiplier

OS:ThermalZone,
  {0eea7934-fc01-443a-8141-70696dacb51a}, !- Handle
  living zone,                            !- Name
  ,                                       !- Multiplier
  ,                                       !- Ceiling Height {m}
  ,                                       !- Volume {m3}
  ,                                       !- Floor Area {m2}
  ,                                       !- Zone Inside Convection Algorithm
  ,                                       !- Zone Outside Convection Algorithm
  ,                                       !- Zone Conditioning Equipment List Name
  {e82e1aa7-18b4-4fa6-bd3c-47758ba255b3}, !- Zone Air Inlet Port List
  {b2235ff9-e5ae-4e90-9196-f7779f85d8ec}, !- Zone Air Exhaust Port List
  {681f8a05-bac7-46f4-be3c-f5d1b1b9c514}, !- Zone Air Node Name
  ,                                       !- Zone Return Air Node Name
  ,                                       !- Primary Daylighting Control Name
  ,                                       !- Fraction of Zone Controlled by Primary Daylighting Control
  ,                                       !- Secondary Daylighting Control Name
  ,                                       !- Fraction of Zone Controlled by Secondary Daylighting Control
  ,                                       !- Illuminance Map Name
  ,                                       !- Group Rendering Name
  ,                                       !- Thermostat Name
  No;                                     !- Use Ideal Air Loads

OS:Node,
  {a82696ab-d411-4e02-864c-d8544ddcd539}, !- Handle
  Node 1,                                 !- Name
  {681f8a05-bac7-46f4-be3c-f5d1b1b9c514}, !- Inlet Port
  ;                                       !- Outlet Port

OS:Connection,
  {681f8a05-bac7-46f4-be3c-f5d1b1b9c514}, !- Handle
  {2c23595c-7e59-4f05-b757-dd977adf7f7a}, !- Name
  {0eea7934-fc01-443a-8141-70696dacb51a}, !- Source Object
  11,                                     !- Outlet Port
  {a82696ab-d411-4e02-864c-d8544ddcd539}, !- Target Object
  2;                                      !- Inlet Port

OS:PortList,
  {e82e1aa7-18b4-4fa6-bd3c-47758ba255b3}, !- Handle
  Port List 1,                            !- Name
  {0eea7934-fc01-443a-8141-70696dacb51a}; !- HVAC Component

OS:PortList,
  {b2235ff9-e5ae-4e90-9196-f7779f85d8ec}, !- Handle
  Port List 2,                            !- Name
  {0eea7934-fc01-443a-8141-70696dacb51a}; !- HVAC Component

OS:Sizing:Zone,
  {630703ba-f805-4736-a8c7-a3e8a1492ba2}, !- Handle
  {0eea7934-fc01-443a-8141-70696dacb51a}, !- Zone or ZoneList Name
  SupplyAirTemperature,                   !- Zone Cooling Design Supply Air Temperature Input Method
  14,                                     !- Zone Cooling Design Supply Air Temperature {C}
  11.11,                                  !- Zone Cooling Design Supply Air Temperature Difference {deltaC}
  SupplyAirTemperature,                   !- Zone Heating Design Supply Air Temperature Input Method
  40,                                     !- Zone Heating Design Supply Air Temperature {C}
  11.11,                                  !- Zone Heating Design Supply Air Temperature Difference {deltaC}
  0.0085,                                 !- Zone Cooling Design Supply Air Humidity Ratio {kg-H2O/kg-air}
  0.008,                                  !- Zone Heating Design Supply Air Humidity Ratio {kg-H2O/kg-air}
  ,                                       !- Zone Heating Sizing Factor
  ,                                       !- Zone Cooling Sizing Factor
  DesignDay,                              !- Cooling Design Air Flow Method
  ,                                       !- Cooling Design Air Flow Rate {m3/s}
  ,                                       !- Cooling Minimum Air Flow per Zone Floor Area {m3/s-m2}
  ,                                       !- Cooling Minimum Air Flow {m3/s}
  ,                                       !- Cooling Minimum Air Flow Fraction
  DesignDay,                              !- Heating Design Air Flow Method
  ,                                       !- Heating Design Air Flow Rate {m3/s}
  ,                                       !- Heating Maximum Air Flow per Zone Floor Area {m3/s-m2}
  ,                                       !- Heating Maximum Air Flow {m3/s}
  ,                                       !- Heating Maximum Air Flow Fraction
  ,                                       !- Design Zone Air Distribution Effectiveness in Cooling Mode
  ,                                       !- Design Zone Air Distribution Effectiveness in Heating Mode
  No,                                     !- Account for Dedicated Outdoor Air System
  NeutralSupplyAir,                       !- Dedicated Outdoor Air System Control Strategy
  autosize,                               !- Dedicated Outdoor Air Low Setpoint Temperature for Design {C}
  autosize;                               !- Dedicated Outdoor Air High Setpoint Temperature for Design {C}

OS:ZoneHVAC:EquipmentList,
  {ed3318f2-9801-4226-8c06-0c1a56f47c29}, !- Handle
  Zone HVAC Equipment List 1,             !- Name
  {0eea7934-fc01-443a-8141-70696dacb51a}; !- Thermal Zone

OS:Space,
  {28316858-b3f1-461c-878f-461341037806}, !- Handle
  living space,                           !- Name
  ,                                       !- Space Type Name
  ,                                       !- Default Construction Set Name
  ,                                       !- Default Schedule Set Name
  -0,                                     !- Direction of Relative North {deg}
  0,                                      !- X Origin {m}
  0,                                      !- Y Origin {m}
  0,                                      !- Z Origin {m}
  ,                                       !- Building Story Name
  {0eea7934-fc01-443a-8141-70696dacb51a}, !- Thermal Zone Name
  ,                                       !- Part of Total Floor Area
  ,                                       !- Design Specification Outdoor Air Object Name
  {ed331580-36a2-470d-81a5-a7b119b5f16b}; !- Building Unit Name

OS:Surface,
  {962aa5e1-e4fa-4527-9293-bf39b9cb40b9}, !- Handle
  Surface 1,                              !- Name
  Floor,                                  !- Surface Type
  ,                                       !- Construction Name
  {28316858-b3f1-461c-878f-461341037806}, !- Space Name
  Ground,                                 !- Outside Boundary Condition
  ,                                       !- Outside Boundary Condition Object
  NoSun,                                  !- Sun Exposure
  NoWind,                                 !- Wind Exposure
  ,                                       !- View Factor to Ground
  ,                                       !- Number of Vertices
  0, 0, 0,                                !- X,Y,Z Vertex 1 {m}
  0, 13.6310703908387, 0,                 !- X,Y,Z Vertex 2 {m}
  6.81553519541936, 13.6310703908387, 0,  !- X,Y,Z Vertex 3 {m}
  6.81553519541936, 0, 0;                 !- X,Y,Z Vertex 4 {m}

OS:Surface,
  {c51217cf-aea2-435e-8ed1-cbc1c523aaba}, !- Handle
  Surface 2,                              !- Name
  Wall,                                   !- Surface Type
  ,                                       !- Construction Name
  {28316858-b3f1-461c-878f-461341037806}, !- Space Name
  Outdoors,                               !- Outside Boundary Condition
  ,                                       !- Outside Boundary Condition Object
  SunExposed,                             !- Sun Exposure
  WindExposed,                            !- Wind Exposure
  ,                                       !- View Factor to Ground
  ,                                       !- Number of Vertices
  0, 13.6310703908387, 2.4384,            !- X,Y,Z Vertex 1 {m}
  0, 13.6310703908387, 0,                 !- X,Y,Z Vertex 2 {m}
  0, 0, 0,                                !- X,Y,Z Vertex 3 {m}
  0, 0, 2.4384;                           !- X,Y,Z Vertex 4 {m}

OS:Surface,
  {9f55d0f9-6fdf-482b-951f-8eb0bce291a8}, !- Handle
  Surface 3,                              !- Name
  Wall,                                   !- Surface Type
  ,                                       !- Construction Name
  {28316858-b3f1-461c-878f-461341037806}, !- Space Name
  Outdoors,                               !- Outside Boundary Condition
  ,                                       !- Outside Boundary Condition Object
  SunExposed,                             !- Sun Exposure
  WindExposed,                            !- Wind Exposure
  ,                                       !- View Factor to Ground
  ,                                       !- Number of Vertices
  6.81553519541936, 13.6310703908387, 2.4384, !- X,Y,Z Vertex 1 {m}
  6.81553519541936, 13.6310703908387, 0,  !- X,Y,Z Vertex 2 {m}
  0, 13.6310703908387, 0,                 !- X,Y,Z Vertex 3 {m}
  0, 13.6310703908387, 2.4384;            !- X,Y,Z Vertex 4 {m}

OS:Surface,
  {f893531d-a13d-4d61-aa6a-2a6f5122ee85}, !- Handle
  Surface 4,                              !- Name
  Wall,                                   !- Surface Type
  ,                                       !- Construction Name
  {28316858-b3f1-461c-878f-461341037806}, !- Space Name
  Outdoors,                               !- Outside Boundary Condition
  ,                                       !- Outside Boundary Condition Object
  SunExposed,                             !- Sun Exposure
  WindExposed,                            !- Wind Exposure
  ,                                       !- View Factor to Ground
  ,                                       !- Number of Vertices
  6.81553519541936, 0, 2.4384,            !- X,Y,Z Vertex 1 {m}
  6.81553519541936, 0, 0,                 !- X,Y,Z Vertex 2 {m}
  6.81553519541936, 13.6310703908387, 0,  !- X,Y,Z Vertex 3 {m}
  6.81553519541936, 13.6310703908387, 2.4384; !- X,Y,Z Vertex 4 {m}

OS:Surface,
  {dee5964c-cb3d-4aeb-9e51-f5ca332a20d2}, !- Handle
  Surface 5,                              !- Name
  Wall,                                   !- Surface Type
  ,                                       !- Construction Name
  {28316858-b3f1-461c-878f-461341037806}, !- Space Name
  Outdoors,                               !- Outside Boundary Condition
  ,                                       !- Outside Boundary Condition Object
  SunExposed,                             !- Sun Exposure
  WindExposed,                            !- Wind Exposure
  ,                                       !- View Factor to Ground
  ,                                       !- Number of Vertices
  0, 0, 2.4384,                           !- X,Y,Z Vertex 1 {m}
  0, 0, 0,                                !- X,Y,Z Vertex 2 {m}
  6.81553519541936, 0, 0,                 !- X,Y,Z Vertex 3 {m}
  6.81553519541936, 0, 2.4384;            !- X,Y,Z Vertex 4 {m}

OS:Surface,
  {b1b124c8-804f-42c1-a004-a337d3234599}, !- Handle
  Surface 6,                              !- Name
  RoofCeiling,                            !- Surface Type
  ,                                       !- Construction Name
  {28316858-b3f1-461c-878f-461341037806}, !- Space Name
  Surface,                                !- Outside Boundary Condition
  {0eac4fe2-36a0-4853-bafe-e758b0476e69}, !- Outside Boundary Condition Object
  NoSun,                                  !- Sun Exposure
  NoWind,                                 !- Wind Exposure
  ,                                       !- View Factor to Ground
  ,                                       !- Number of Vertices
  6.81553519541936, 0, 2.4384,            !- X,Y,Z Vertex 1 {m}
  6.81553519541936, 13.6310703908387, 2.4384, !- X,Y,Z Vertex 2 {m}
  0, 13.6310703908387, 2.4384,            !- X,Y,Z Vertex 3 {m}
  0, 0, 2.4384;                           !- X,Y,Z Vertex 4 {m}

OS:Space,
  {7021ab42-a312-4c52-8415-48ec31e6d739}, !- Handle
  living space|story 2,                   !- Name
  ,                                       !- Space Type Name
  ,                                       !- Default Construction Set Name
  ,                                       !- Default Schedule Set Name
  -0,                                     !- Direction of Relative North {deg}
  0,                                      !- X Origin {m}
  0,                                      !- Y Origin {m}
  2.4384,                                 !- Z Origin {m}
  ,                                       !- Building Story Name
  {0eea7934-fc01-443a-8141-70696dacb51a}, !- Thermal Zone Name
  ,                                       !- Part of Total Floor Area
  ,                                       !- Design Specification Outdoor Air Object Name
  {ed331580-36a2-470d-81a5-a7b119b5f16b}; !- Building Unit Name

OS:Surface,
  {0eac4fe2-36a0-4853-bafe-e758b0476e69}, !- Handle
  Surface 7,                              !- Name
  Floor,                                  !- Surface Type
  ,                                       !- Construction Name
  {7021ab42-a312-4c52-8415-48ec31e6d739}, !- Space Name
  Surface,                                !- Outside Boundary Condition
  {b1b124c8-804f-42c1-a004-a337d3234599}, !- Outside Boundary Condition Object
  NoSun,                                  !- Sun Exposure
  NoWind,                                 !- Wind Exposure
  ,                                       !- View Factor to Ground
  ,                                       !- Number of Vertices
  0, 0, 0,                                !- X,Y,Z Vertex 1 {m}
  0, 13.6310703908387, 0,                 !- X,Y,Z Vertex 2 {m}
  6.81553519541936, 13.6310703908387, 0,  !- X,Y,Z Vertex 3 {m}
  6.81553519541936, 0, 0;                 !- X,Y,Z Vertex 4 {m}

OS:Surface,
  {253cdf56-b96b-43dd-8265-2b09bbf8677d}, !- Handle
  Surface 8,                              !- Name
  Wall,                                   !- Surface Type
  ,                                       !- Construction Name
  {7021ab42-a312-4c52-8415-48ec31e6d739}, !- Space Name
  Outdoors,                               !- Outside Boundary Condition
  ,                                       !- Outside Boundary Condition Object
  SunExposed,                             !- Sun Exposure
  WindExposed,                            !- Wind Exposure
  ,                                       !- View Factor to Ground
  ,                                       !- Number of Vertices
  0, 13.6310703908387, 2.4384,            !- X,Y,Z Vertex 1 {m}
  0, 13.6310703908387, 0,                 !- X,Y,Z Vertex 2 {m}
  0, 0, 0,                                !- X,Y,Z Vertex 3 {m}
  0, 0, 2.4384;                           !- X,Y,Z Vertex 4 {m}

OS:Surface,
  {92944ff1-5f61-4243-9b8c-9835736ad71c}, !- Handle
  Surface 9,                              !- Name
  Wall,                                   !- Surface Type
  ,                                       !- Construction Name
  {7021ab42-a312-4c52-8415-48ec31e6d739}, !- Space Name
  Outdoors,                               !- Outside Boundary Condition
  ,                                       !- Outside Boundary Condition Object
  SunExposed,                             !- Sun Exposure
  WindExposed,                            !- Wind Exposure
  ,                                       !- View Factor to Ground
  ,                                       !- Number of Vertices
  6.81553519541936, 13.6310703908387, 2.4384, !- X,Y,Z Vertex 1 {m}
  6.81553519541936, 13.6310703908387, 0,  !- X,Y,Z Vertex 2 {m}
  0, 13.6310703908387, 0,                 !- X,Y,Z Vertex 3 {m}
  0, 13.6310703908387, 2.4384;            !- X,Y,Z Vertex 4 {m}

OS:Surface,
  {2f4562a0-4016-48ca-92fc-0eafcaf45821}, !- Handle
  Surface 10,                             !- Name
  Wall,                                   !- Surface Type
  ,                                       !- Construction Name
  {7021ab42-a312-4c52-8415-48ec31e6d739}, !- Space Name
  Outdoors,                               !- Outside Boundary Condition
  ,                                       !- Outside Boundary Condition Object
  SunExposed,                             !- Sun Exposure
  WindExposed,                            !- Wind Exposure
  ,                                       !- View Factor to Ground
  ,                                       !- Number of Vertices
  6.81553519541936, 0, 2.4384,            !- X,Y,Z Vertex 1 {m}
  6.81553519541936, 0, 0,                 !- X,Y,Z Vertex 2 {m}
  6.81553519541936, 13.6310703908387, 0,  !- X,Y,Z Vertex 3 {m}
  6.81553519541936, 13.6310703908387, 2.4384; !- X,Y,Z Vertex 4 {m}

OS:Surface,
  {8967012e-1182-4adb-8e2b-f9e4f7ade465}, !- Handle
  Surface 11,                             !- Name
  Wall,                                   !- Surface Type
  ,                                       !- Construction Name
  {7021ab42-a312-4c52-8415-48ec31e6d739}, !- Space Name
  Outdoors,                               !- Outside Boundary Condition
  ,                                       !- Outside Boundary Condition Object
  SunExposed,                             !- Sun Exposure
  WindExposed,                            !- Wind Exposure
  ,                                       !- View Factor to Ground
  ,                                       !- Number of Vertices
  0, 0, 2.4384,                           !- X,Y,Z Vertex 1 {m}
  0, 0, 0,                                !- X,Y,Z Vertex 2 {m}
  6.81553519541936, 0, 0,                 !- X,Y,Z Vertex 3 {m}
  6.81553519541936, 0, 2.4384;            !- X,Y,Z Vertex 4 {m}

OS:Surface,
  {243625ed-5f27-4305-9fa5-bd067a995867}, !- Handle
  Surface 12,                             !- Name
  RoofCeiling,                            !- Surface Type
  ,                                       !- Construction Name
  {7021ab42-a312-4c52-8415-48ec31e6d739}, !- Space Name
  Surface,                                !- Outside Boundary Condition
  {2c4cfe4d-6aa9-447a-9fbb-849977c9339b}, !- Outside Boundary Condition Object
  NoSun,                                  !- Sun Exposure
  NoWind,                                 !- Wind Exposure
  ,                                       !- View Factor to Ground
  ,                                       !- Number of Vertices
  6.81553519541936, 0, 2.4384,            !- X,Y,Z Vertex 1 {m}
  6.81553519541936, 13.6310703908387, 2.4384, !- X,Y,Z Vertex 2 {m}
  0, 13.6310703908387, 2.4384,            !- X,Y,Z Vertex 3 {m}
  0, 0, 2.4384;                           !- X,Y,Z Vertex 4 {m}

OS:Surface,
  {2c4cfe4d-6aa9-447a-9fbb-849977c9339b}, !- Handle
  Surface 13,                             !- Name
  Floor,                                  !- Surface Type
  ,                                       !- Construction Name
  {0d05b1f7-b310-4c35-ab91-a276c196a369}, !- Space Name
  Surface,                                !- Outside Boundary Condition
  {243625ed-5f27-4305-9fa5-bd067a995867}, !- Outside Boundary Condition Object
  NoSun,                                  !- Sun Exposure
  NoWind,                                 !- Wind Exposure
  ,                                       !- View Factor to Ground
  ,                                       !- Number of Vertices
  0, 13.6310703908387, 0,                 !- X,Y,Z Vertex 1 {m}
  6.81553519541936, 13.6310703908387, 0,  !- X,Y,Z Vertex 2 {m}
  6.81553519541936, 0, 0,                 !- X,Y,Z Vertex 3 {m}
  0, 0, 0;                                !- X,Y,Z Vertex 4 {m}

OS:Surface,
  {fe296f53-4cca-49c4-8e45-e82b1aebe815}, !- Handle
  Surface 14,                             !- Name
  RoofCeiling,                            !- Surface Type
  ,                                       !- Construction Name
  {0d05b1f7-b310-4c35-ab91-a276c196a369}, !- Space Name
  Outdoors,                               !- Outside Boundary Condition
  ,                                       !- Outside Boundary Condition Object
  SunExposed,                             !- Sun Exposure
  WindExposed,                            !- Wind Exposure
  ,                                       !- View Factor to Ground
  ,                                       !- Number of Vertices
  3.40776759770968, 10.223302793129, 1.70388379885484, !- X,Y,Z Vertex 1 {m}
  3.40776759770968, 3.40776759770968, 1.70388379885484, !- X,Y,Z Vertex 2 {m}
  6.81553519541936, 0, 0,                 !- X,Y,Z Vertex 3 {m}
  6.81553519541936, 13.6310703908387, 0;  !- X,Y,Z Vertex 4 {m}

OS:Surface,
  {77cbb072-c0e3-4f92-b3a3-c68e0e8a7fd8}, !- Handle
  Surface 15,                             !- Name
  RoofCeiling,                            !- Surface Type
  ,                                       !- Construction Name
  {0d05b1f7-b310-4c35-ab91-a276c196a369}, !- Space Name
  Outdoors,                               !- Outside Boundary Condition
  ,                                       !- Outside Boundary Condition Object
  SunExposed,                             !- Sun Exposure
  WindExposed,                            !- Wind Exposure
  ,                                       !- View Factor to Ground
  ,                                       !- Number of Vertices
  3.40776759770968, 3.40776759770968, 1.70388379885484, !- X,Y,Z Vertex 1 {m}
  3.40776759770968, 10.223302793129, 1.70388379885484, !- X,Y,Z Vertex 2 {m}
  0, 13.6310703908387, 0,                 !- X,Y,Z Vertex 3 {m}
  0, 0, 0;                                !- X,Y,Z Vertex 4 {m}

OS:Surface,
  {8a621a51-3f3b-4623-a308-e08ebf4b0bc2}, !- Handle
  Surface 16,                             !- Name
  RoofCeiling,                            !- Surface Type
  ,                                       !- Construction Name
  {0d05b1f7-b310-4c35-ab91-a276c196a369}, !- Space Name
  Outdoors,                               !- Outside Boundary Condition
  ,                                       !- Outside Boundary Condition Object
  SunExposed,                             !- Sun Exposure
  WindExposed,                            !- Wind Exposure
  ,                                       !- View Factor to Ground
  ,                                       !- Number of Vertices
  3.40776759770968, 3.40776759770968, 1.70388379885484, !- X,Y,Z Vertex 1 {m}
  0, 0, 0,                                !- X,Y,Z Vertex 2 {m}
  6.81553519541936, 0, 0;                 !- X,Y,Z Vertex 3 {m}

OS:Surface,
  {f1d9f312-905e-43eb-8c2d-79ac7eec5a6b}, !- Handle
  Surface 17,                             !- Name
  RoofCeiling,                            !- Surface Type
  ,                                       !- Construction Name
  {0d05b1f7-b310-4c35-ab91-a276c196a369}, !- Space Name
  Outdoors,                               !- Outside Boundary Condition
  ,                                       !- Outside Boundary Condition Object
  SunExposed,                             !- Sun Exposure
  WindExposed,                            !- Wind Exposure
  ,                                       !- View Factor to Ground
  ,                                       !- Number of Vertices
  3.40776759770968, 10.223302793129, 1.70388379885484, !- X,Y,Z Vertex 1 {m}
  6.81553519541936, 13.6310703908387, 0,  !- X,Y,Z Vertex 2 {m}
  0, 13.6310703908387, 0;                 !- X,Y,Z Vertex 3 {m}

OS:Space,
  {0d05b1f7-b310-4c35-ab91-a276c196a369}, !- Handle
  unfinished attic space,                 !- Name
  ,                                       !- Space Type Name
  ,                                       !- Default Construction Set Name
  ,                                       !- Default Schedule Set Name
  -0,                                     !- Direction of Relative North {deg}
  0,                                      !- X Origin {m}
  0,                                      !- Y Origin {m}
  4.8768,                                 !- Z Origin {m}
  ,                                       !- Building Story Name
  {7fa79d47-3806-4bf4-b2f3-6e3d4f48adf5}, !- Thermal Zone Name
  ,                                       !- Part of Total Floor Area
  ,                                       !- Design Specification Outdoor Air Object Name
  {ed331580-36a2-470d-81a5-a7b119b5f16b}; !- Building Unit Name

OS:ThermalZone,
  {7fa79d47-3806-4bf4-b2f3-6e3d4f48adf5}, !- Handle
  unfinished attic zone,                  !- Name
  ,                                       !- Multiplier
  ,                                       !- Ceiling Height {m}
  ,                                       !- Volume {m3}
  ,                                       !- Floor Area {m2}
  ,                                       !- Zone Inside Convection Algorithm
  ,                                       !- Zone Outside Convection Algorithm
  ,                                       !- Zone Conditioning Equipment List Name
  {e7b8384f-e398-41f9-bc52-1c248ac0dcc6}, !- Zone Air Inlet Port List
  {56077bbd-acae-477a-a084-29642d167c8d}, !- Zone Air Exhaust Port List
  {8a3fca84-98ca-474f-aa4e-12b6e83b439d}, !- Zone Air Node Name
  ,                                       !- Zone Return Air Node Name
  ,                                       !- Primary Daylighting Control Name
  ,                                       !- Fraction of Zone Controlled by Primary Daylighting Control
  ,                                       !- Secondary Daylighting Control Name
  ,                                       !- Fraction of Zone Controlled by Secondary Daylighting Control
  ,                                       !- Illuminance Map Name
  ,                                       !- Group Rendering Name
  ,                                       !- Thermostat Name
  No;                                     !- Use Ideal Air Loads

OS:Node,
  {ecbaf5f4-4294-4039-9d7a-23176c6b95ea}, !- Handle
  Node 2,                                 !- Name
  {8a3fca84-98ca-474f-aa4e-12b6e83b439d}, !- Inlet Port
  ;                                       !- Outlet Port

OS:Connection,
  {8a3fca84-98ca-474f-aa4e-12b6e83b439d}, !- Handle
  {c8905e11-b521-44c5-830a-8d4fb51a9f00}, !- Name
  {7fa79d47-3806-4bf4-b2f3-6e3d4f48adf5}, !- Source Object
  11,                                     !- Outlet Port
  {ecbaf5f4-4294-4039-9d7a-23176c6b95ea}, !- Target Object
  2;                                      !- Inlet Port

OS:PortList,
  {e7b8384f-e398-41f9-bc52-1c248ac0dcc6}, !- Handle