!- NOTE: Auto-generated from /test/osw_files/SFD_2000sqft_2story_SL_GRGLeft_FlatRoof.osw

OS:Version,
  {c42ddbf3-ee3e-41e2-89d3-8e8e30a7ea4e}, !- Handle
  2.1.0;                                  !- Version Identifier

OS:Building,
  {bf305633-c5a1-4881-9edf-ca5e1a8e1274}, !- Handle
  Building,                               !- Name
  ,                                       !- Building Sector Type
  ,                                       !- North Axis {deg}
  ,                                       !- Nominal Floor to Floor Height {m}
  ,                                       !- Space Type Name
  ,                                       !- Default Construction Set Name
  ,                                       !- Default Schedule Set Name
  2,                                      !- Standards Number of Stories
  2,                                      !- Standards Number of Above Ground Stories
  singlefamilydetached,                   !- Standards Building Type
  1;                                      !- Standards Number of Living Units

OS:YearDescription,
  {513d8dda-86cb-442a-b01c-1f7f0e0ac70e}; !- Handle

OS:SimulationControl,
  {2c487a4c-bac9-4ac5-b669-1e49d9da7c2b}, !- Handle
  ,                                       !- Do Zone Sizing Calculation
  ,                                       !- Do System Sizing Calculation
  ,                                       !- Do Plant Sizing Calculation
  No,                                     !- Run Simulation for Sizing Periods
  ;                                       !- Run Simulation for Weather File Run Periods

OS:Timestep,
  {4ebc9f1e-4707-402e-9844-67eb1ffbd522}, !- Handle
  6;                                      !- Number of Timesteps per Hour

OS:RunPeriod,
  {28df894d-6af9-4fb8-8f56-df1753344aa3}, !- Handle
  Run Period,                             !- Name
  1,                                      !- Begin Month
  1,                                      !- Begin Day of Month
  12,                                     !- End Month
  31,                                     !- End Day of Month
  ,                                       !- Use Weather File Holidays and Special Days
  ,                                       !- Use Weather File Daylight Saving Period
  ,                                       !- Apply Weekend Holiday Rule
  ,                                       !- Use Weather File Rain Indicators
  ,                                       !- Use Weather File Snow Indicators
  ;                                       !- Number of Times Runperiod to be Repeated

OS:Sizing:Parameters,
  {dde5af6f-7923-4600-a28a-7556673a0266}, !- Handle
  1.0,                                    !- Heating Sizing Factor
  1.0;                                    !- Cooling Sizing Factor

OS:ShadowCalculation,
  {ca758bea-4416-4626-9bba-3d8795c79bd6}, !- Handle
  20,                                     !- Calculation Frequency
  200;                                    !- Maximum Figures in Shadow Overlap Calculations

OS:SurfaceConvectionAlgorithm:Inside,
  {aaabfc36-718a-4ab0-b622-f186ebb45230}, !- Handle
  TARP;                                   !- Algorithm

OS:SurfaceConvectionAlgorithm:Outside,
  {9a0a9f6f-4bbd-4b12-a121-9492a1fcd7d6}, !- Handle
  DOE-2;                                  !- Algorithm

OS:HeatBalanceAlgorithm,
  {9d93e563-e1e0-46d7-9e39-d1c8aceb7212}, !- Handle
  ConductionTransferFunction,             !- Algorithm
  200;                                    !- Surface Temperature Upper Limit {C}

OS:ZoneCapacitanceMultiplier:ResearchSpecial,
  {6bfced16-b16f-47f6-8223-f7e267d75d19}, !- Handle
  ,                                       !- Temperature Capacity Multiplier
  15,                                     !- Humidity Capacity Multiplier
  ;                                       !- Carbon Dioxide Capacity Multiplier

OS:ThermalZone,
  {6244446a-c3ce-4576-ac19-4dabfe7fa23c}, !- Handle
  living zone,                            !- Name
  ,                                       !- Multiplier
  ,                                       !- Ceiling Height {m}
  ,                                       !- Volume {m3}
  ,                                       !- Floor Area {m2}
  ,                                       !- Zone Inside Convection Algorithm
  ,                                       !- Zone Outside Convection Algorithm
  ,                                       !- Zone Conditioning Equipment List Name
  {1effe2ec-b8d5-426d-9fa6-4bb3932b8def}, !- Zone Air Inlet Port List
  {c4354c1f-86fa-4110-b6f2-80c4b41c6759}, !- Zone Air Exhaust Port List
  {598751a5-1920-4dfc-a697-57bfd8127f28}, !- Zone Air Node Name
  ,                                       !- Zone Return Air Node Name
  ,                                       !- Primary Daylighting Control Name
  ,                                       !- Fraction of Zone Controlled by Primary Daylighting Control
  ,                                       !- Secondary Daylighting Control Name
  ,                                       !- Fraction of Zone Controlled by Secondary Daylighting Control
  ,                                       !- Illuminance Map Name
  ,                                       !- Group Rendering Name
  ,                                       !- Thermostat Name
  No;                                     !- Use Ideal Air Loads

OS:Node,
  {3db6c4ba-1fe8-4a57-b08f-59eb24352fca}, !- Handle
  Node 1,                                 !- Name
  {598751a5-1920-4dfc-a697-57bfd8127f28}, !- Inlet Port
  ;                                       !- Outlet Port

OS:Connection,
  {598751a5-1920-4dfc-a697-57bfd8127f28}, !- Handle
  {67dbb073-47a1-4e60-80e3-edf80bc07b7b}, !- Name
  {6244446a-c3ce-4576-ac19-4dabfe7fa23c}, !- Source Object
  11,                                     !- Outlet Port
  {3db6c4ba-1fe8-4a57-b08f-59eb24352fca}, !- Target Object
  2;                                      !- Inlet Port

OS:PortList,
  {1effe2ec-b8d5-426d-9fa6-4bb3932b8def}, !- Handle
  Port List 1,                            !- Name
  {6244446a-c3ce-4576-ac19-4dabfe7fa23c}; !- HVAC Component

OS:PortList,
  {c4354c1f-86fa-4110-b6f2-80c4b41c6759}, !- Handle
  Port List 2,                            !- Name
  {6244446a-c3ce-4576-ac19-4dabfe7fa23c}; !- HVAC Component

OS:Sizing:Zone,
  {e7ac4419-95b4-40f4-8a4e-2dbab3790533}, !- Handle
  {6244446a-c3ce-4576-ac19-4dabfe7fa23c}, !- Zone or ZoneList Name
  SupplyAirTemperature,                   !- Zone Cooling Design Supply Air Temperature Input Method
  14,                                     !- Zone Cooling Design Supply Air Temperature {C}
  11.11,                                  !- Zone Cooling Design Supply Air Temperature Difference {deltaC}
  SupplyAirTemperature,                   !- Zone Heating Design Supply Air Temperature Input Method
  40,                                     !- Zone Heating Design Supply Air Temperature {C}
  11.11,                                  !- Zone Heating Design Supply Air Temperature Difference {deltaC}
  0.0085,                                 !- Zone Cooling Design Supply Air Humidity Ratio {kg-H2O/kg-air}
  0.008,                                  !- Zone Heating Design Supply Air Humidity Ratio {kg-H2O/kg-air}
  ,                                       !- Zone Heating Sizing Factor
  ,                                       !- Zone Cooling Sizing Factor
  DesignDay,                              !- Cooling Design Air Flow Method
  ,                                       !- Cooling Design Air Flow Rate {m3/s}
  ,                                       !- Cooling Minimum Air Flow per Zone Floor Area {m3/s-m2}
  ,                                       !- Cooling Minimum Air Flow {m3/s}
  ,                                       !- Cooling Minimum Air Flow Fraction
  DesignDay,                              !- Heating Design Air Flow Method
  ,                                       !- Heating Design Air Flow Rate {m3/s}
  ,                                       !- Heating Maximum Air Flow per Zone Floor Area {m3/s-m2}
  ,                                       !- Heating Maximum Air Flow {m3/s}
  ,                                       !- Heating Maximum Air Flow Fraction
  ,                                       !- Design Zone Air Distribution Effectiveness in Cooling Mode
  ,                                       !- Design Zone Air Distribution Effectiveness in Heating Mode
  No,                                     !- Account for Dedicated Outdoor Air System
  NeutralSupplyAir,                       !- Dedicated Outdoor Air System Control Strategy
  autosize,                               !- Dedicated Outdoor Air Low Setpoint Temperature for Design {C}
  autosize;                               !- Dedicated Outdoor Air High Setpoint Temperature for Design {C}

OS:ZoneHVAC:EquipmentList,
  {0d1c97dc-3980-415a-8645-ddde371b8540}, !- Handle
  Zone HVAC Equipment List 1,             !- Name
  {6244446a-c3ce-4576-ac19-4dabfe7fa23c}; !- Thermal Zone

OS:ThermalZone,
  {68b7c005-674c-47f9-ba4e-38baf21b7b61}, !- Handle
  garage zone,                            !- Name
  ,                                       !- Multiplier
  ,                                       !- Ceiling Height {m}
  ,                                       !- Volume {m3}
  ,                                       !- Floor Area {m2}
  ,                                       !- Zone Inside Convection Algorithm
  ,                                       !- Zone Outside Convection Algorithm
  ,                                       !- Zone Conditioning Equipment List Name
  {73ff2113-4157-4dba-9d68-03a6879d52ad}, !- Zone Air Inlet Port List
  {9f420211-74b2-4f7e-a4d6-aacdf72f11d1}, !- Zone Air Exhaust Port List
  {5c792cbb-3fa7-4769-9483-dd19d8e4b1e0}, !- Zone Air Node Name
  ,                                       !- Zone Return Air Node Name
  ,                                       !- Primary Daylighting Control Name
  ,                                       !- Fraction of Zone Controlled by Primary Daylighting Control
  ,                                       !- Secondary Daylighting Control Name
  ,                                       !- Fraction of Zone Controlled by Secondary Daylighting Control
  ,                                       !- Illuminance Map Name
  ,                                       !- Group Rendering Name
  ,                                       !- Thermostat Name
  No;                                     !- Use Ideal Air Loads

OS:Node,
  {6162acf7-cd32-469e-852c-0747c499e019}, !- Handle
  Node 2,                                 !- Name
  {5c792cbb-3fa7-4769-9483-dd19d8e4b1e0}, !- Inlet Port
  ;                                       !- Outlet Port

OS:Connection,
  {5c792cbb-3fa7-4769-9483-dd19d8e4b1e0}, !- Handle
  {53686f61-c3ea-483b-a100-d55846a59e3c}, !- Name
  {68b7c005-674c-47f9-ba4e-38baf21b7b61}, !- Source Object
  11,                                     !- Outlet Port
  {6162acf7-cd32-469e-852c-0747c499e019}, !- Target Object
  2;                                      !- Inlet Port

OS:PortList,
  {73ff2113-4157-4dba-9d68-03a6879d52ad}, !- Handle
  Port List 3,                            !- Name
  {68b7c005-674c-47f9-ba4e-38baf21b7b61}; !- HVAC Component

OS:PortList,
  {9f420211-74b2-4f7e-a4d6-aacdf72f11d1}, !- Handle
  Port List 4,                            !- Name
  {68b7c005-674c-47f9-ba4e-38baf21b7b61}; !- HVAC Component

OS:Sizing:Zone,
  {6b8df1c8-4cf0-4e16-9bcc-1a970ce88d36}, !- Handle
  {68b7c005-674c-47f9-ba4e-38baf21b7b61}, !- Zone or ZoneList Name
  SupplyAirTemperature,                   !- Zone Cooling Design Supply Air Temperature Input Method
  14,                                     !- Zone Cooling Design Supply Air Temperature {C}
  11.11,                                  !- Zone Cooling Design Supply Air Temperature Difference {deltaC}
  SupplyAirTemperature,                   !- Zone Heating Design Supply Air Temperature Input Method
  40,                                     !- Zone Heating Design Supply Air Temperature {C}
  11.11,                                  !- Zone Heating Design Supply Air Temperature Difference {deltaC}
  0.0085,                                 !- Zone Cooling Design Supply Air Humidity Ratio {kg-H2O/kg-air}
  0.008,                                  !- Zone Heating Design Supply Air Humidity Ratio {kg-H2O/kg-air}
  ,                                       !- Zone Heating Sizing Factor
  ,                                       !- Zone Cooling Sizing Factor
  DesignDay,                              !- Cooling Design Air Flow Method
  ,                                       !- Cooling Design Air Flow Rate {m3/s}
  ,                                       !- Cooling Minimum Air Flow per Zone Floor Area {m3/s-m2}
  ,                                       !- Cooling Minimum Air Flow {m3/s}
  ,                                       !- Cooling Minimum Air Flow Fraction
  DesignDay,                              !- Heating Design Air Flow Method
  ,                                       !- Heating Design Air Flow Rate {m3/s}
  ,                                       !- Heating Maximum Air Flow per Zone Floor Area {m3/s-m2}
  ,                                       !- Heating Maximum Air Flow {m3/s}
  ,                                       !- Heating Maximum Air Flow Fraction
  ,                                       !- Design Zone Air Distribution Effectiveness in Cooling Mode
  ,                                       !- Design Zone Air Distribution Effectiveness in Heating Mode
  No,                                     !- Account for Dedicated Outdoor Air System
  NeutralSupplyAir,                       !- Dedicated Outdoor Air System Control Strategy
  autosize,                               !- Dedicated Outdoor Air Low Setpoint Temperature for Design {C}
  autosize;                               !- Dedicated Outdoor Air High Setpoint Temperature for Design {C}

OS:ZoneHVAC:EquipmentList,
  {9517cb32-3ada-447d-968d-e5b480fd9aae}, !- Handle
  Zone HVAC Equipment List 2,             !- Name
  {68b7c005-674c-47f9-ba4e-38baf21b7b61}; !- Thermal Zone

OS:Space,
  {38fdb0e5-1ab4-4d16-8f10-d6ba83d8389a}, !- Handle
  garage space,                           !- Name
  ,                                       !- Space Type Name
  ,                                       !- Default Construction Set Name
  ,                                       !- Default Schedule Set Name
  -0,                                     !- Direction of Relative North {deg}
  0,                                      !- X Origin {m}
  0,                                      !- Y Origin {m}
  0,                                      !- Z Origin {m}
  ,                                       !- Building Story Name
  {68b7c005-674c-47f9-ba4e-38baf21b7b61}, !- Thermal Zone Name
  ,                                       !- Part of Total Floor Area
  ,                                       !- Design Specification Outdoor Air Object Name
  {25f59a82-5874-45ea-bb17-bbabd92a0f6c}; !- Building Unit Name

OS:Surface,
  {4609795d-c89e-40e3-a89e-c79179ca3ad6}, !- Handle
  Surface 1,                              !- Name
  Floor,                                  !- Surface Type
  ,                                       !- Construction Name
  {38fdb0e5-1ab4-4d16-8f10-d6ba83d8389a}, !- Space Name
  Ground,                                 !- Outside Boundary Condition
  ,                                       !- Outside Boundary Condition Object
  NoSun,                                  !- Sun Exposure
  NoWind,                                 !- Wind Exposure
  ,                                       !- View Factor to Ground
  ,                                       !- Number of Vertices
  0, -3.048, 0,                           !- X,Y,Z Vertex 1 {m}
  0, 3.048, 0,                            !- X,Y,Z Vertex 2 {m}
  6.096, 3.048, 0,                        !- X,Y,Z Vertex 3 {m}
  6.096, -3.048, 0;                       !- X,Y,Z Vertex 4 {m}

OS:Surface,
  {9b45a281-5031-4d47-a532-e28d3d692384}, !- Handle
  Surface 2,                              !- Name
  Wall,                                   !- Surface Type
  ,                                       !- Construction Name
  {38fdb0e5-1ab4-4d16-8f10-d6ba83d8389a}, !- Space Name
  Outdoors,                               !- Outside Boundary Condition
  ,                                       !- Outside Boundary Condition Object
  SunExposed,                             !- Sun Exposure
  WindExposed,                            !- Wind Exposure
  ,                                       !- View Factor to Ground
  ,                                       !- Number of Vertices
  0, 3.048, 2.4384,                       !- X,Y,Z Vertex 1 {m}
  0, 3.048, 0,                            !- X,Y,Z Vertex 2 {m}
  0, -3.048, 0,                           !- X,Y,Z Vertex 3 {m}
  0, -3.048, 2.4384;                      !- X,Y,Z Vertex 4 {m}

OS:Surface,
  {08b6f72f-0ad2-40ab-9f98-62c9615438ee}, !- Handle
  Surface 3,                              !- Name
  Wall,                                   !- Surface Type
  ,                                       !- Construction Name
  {38fdb0e5-1ab4-4d16-8f10-d6ba83d8389a}, !- Space Name
  Surface,                                !- Outside Boundary Condition
  {d92ee7fd-d3e0-4b8b-8699-3263af105d78}, !- Outside Boundary Condition Object
  NoSun,                                  !- Sun Exposure
  NoWind,                                 !- Wind Exposure
  ,                                       !- View Factor to Ground
  ,                                       !- Number of Vertices
  6.096, 3.048, 2.4384,                   !- X,Y,Z Vertex 1 {m}
  6.096, 3.048, 0,                        !- X,Y,Z Vertex 2 {m}
  0, 3.048, 0,                            !- X,Y,Z Vertex 3 {m}
  0, 3.048, 2.4384;                       !- X,Y,Z Vertex 4 {m}

OS:Surface,
  {1f1f60bc-e13f-4f35-bbff-39dad66f7a11}, !- Handle
  Surface 4,                              !- Name
  Wall,                                   !- Surface Type
  ,                                       !- Construction Name
  {38fdb0e5-1ab4-4d16-8f10-d6ba83d8389a}, !- Space Name
  Surface,                                !- Outside Boundary Condition
  {83fa109e-c10a-473e-bf7f-fa75a5f3922b}, !- Outside Boundary Condition Object
  NoSun,                                  !- Sun Exposure
  NoWind,                                 !- Wind Exposure
  ,                                       !- View Factor to Ground
  ,                                       !- Number of Vertices
  6.096, 0, 2.4384,                       !- X,Y,Z Vertex 1 {m}
  6.096, 0, 0,                            !- X,Y,Z Vertex 2 {m}
  6.096, 3.048, 0,                        !- X,Y,Z Vertex 3 {m}
  6.096, 3.048, 2.4384;                   !- X,Y,Z Vertex 4 {m}

OS:Surface,
  {7724a13c-4e77-4e54-90ab-303abb1d6a90}, !- Handle
  Surface 5,                              !- Name
  Wall,                                   !- Surface Type
  ,                                       !- Construction Name
  {38fdb0e5-1ab4-4d16-8f10-d6ba83d8389a}, !- Space Name
  Outdoors,                               !- Outside Boundary Condition
  ,                                       !- Outside Boundary Condition Object
  SunExposed,                             !- Sun Exposure
  WindExposed,                            !- Wind Exposure
  ,                                       !- View Factor to Ground
  ,                                       !- Number of Vertices
  0, -3.048, 2.4384,                      !- X,Y,Z Vertex 1 {m}
  0, -3.048, 0,                           !- X,Y,Z Vertex 2 {m}
  6.096, -3.048, 0,                       !- X,Y,Z Vertex 3 {m}
  6.096, -3.048, 2.4384;                  !- X,Y,Z Vertex 4 {m}

OS:Surface,
  {d1f1f565-e295-475c-acaa-1b9f6b524629}, !- Handle
  Surface 6,                              !- Name
  RoofCeiling,                            !- Surface Type
  ,                                       !- Construction Name
  {38fdb0e5-1ab4-4d16-8f10-d6ba83d8389a}, !- Space Name
  Surface,                                !- Outside Boundary Condition
  {71915058-3565-443b-9a20-9cdbdce54ad9}, !- Outside Boundary Condition Object
  NoSun,                                  !- Sun Exposure
  NoWind,                                 !- Wind Exposure
  ,                                       !- View Factor to Ground
  ,                                       !- Number of Vertices
  6.096, -3.048, 2.4384,                  !- X,Y,Z Vertex 1 {m}
  6.096, 3.048, 2.4384,                   !- X,Y,Z Vertex 2 {m}
  0, 3.048, 2.4384,                       !- X,Y,Z Vertex 3 {m}
  0, -3.048, 2.4384;                      !- X,Y,Z Vertex 4 {m}

OS:Space,
  {bfba75f0-d7bf-4c9a-805d-1ed57d3acaf8}, !- Handle
  living space,                           !- Name
  ,                                       !- Space Type Name
  ,                                       !- Default Construction Set Name
  ,                                       !- Default Schedule Set Name
  -0,                                     !- Direction of Relative North {deg}
  0,                                      !- X Origin {m}
  0,                                      !- Y Origin {m}
  0,                                      !- Z Origin {m}
  ,                                       !- Building Story Name
  {6244446a-c3ce-4576-ac19-4dabfe7fa23c}, !- Thermal Zone Name
  ,                                       !- Part of Total Floor Area
  ,                                       !- Design Specification Outdoor Air Object Name
  {25f59a82-5874-45ea-bb17-bbabd92a0f6c}; !- Building Unit Name

OS:Surface,
  {1e14e494-9f60-4fe9-bb59-297652fd6b59}, !- Handle
  Surface 7,                              !- Name
  Floor,                                  !- Surface Type
  ,                                       !- Construction Name
  {bfba75f0-d7bf-4c9a-805d-1ed57d3acaf8}, !- Space Name
  Ground,                                 !- Outside Boundary Condition
  ,                                       !- Outside Boundary Condition Object
  NoSun,                                  !- Sun Exposure
  NoWind,                                 !- Wind Exposure
  ,                                       !- View Factor to Ground
  ,                                       !- Number of Vertices
  0, 3.048, 0,                            !- X,Y,Z Vertex 1 {m}
  0, 6.81553519541936, 0,                 !- X,Y,Z Vertex 2 {m}
  13.6310703908387, 6.81553519541936, 0,  !- X,Y,Z Vertex 3 {m}
  13.6310703908387, 0, 0,                 !- X,Y,Z Vertex 4 {m}
  6.096, 0, 0,                            !- X,Y,Z Vertex 5 {m}
  6.096, 3.048, 0;                        !- X,Y,Z Vertex 6 {m}

OS:Surface,
  {188c87d5-4342-4c9b-b128-4d87fb30bba9}, !- Handle
  Surface 8,                              !- Name
  Wall,                                   !- Surface Type
  ,                                       !- Construction Name
  {bfba75f0-d7bf-4c9a-805d-1ed57d3acaf8}, !- Space Name
  Outdoors,                               !- Outside Boundary Condition
  ,                                       !- Outside Boundary Condition Object
  SunExposed,                             !- Sun Exposure
  WindExposed,                            !- Wind Exposure
  ,                                       !- View Factor to Ground
  ,                                       !- Number of Vertices
  0, 6.81553519541936, 2.4384,            !- X,Y,Z Vertex 1 {m}
  0, 6.81553519541936, 0,                 !- X,Y,Z Vertex 2 {m}
  0, 3.048, 0,                            !- X,Y,Z Vertex 3 {m}
  0, 3.048, 2.4384;                       !- X,Y,Z Vertex 4 {m}

OS:Surface,
  {55a0caa6-f4cd-4636-b020-2dfb7710ea30}, !- Handle
  Surface 9,                              !- Name
  Wall,                                   !- Surface Type
  ,                                       !- Construction Name
  {bfba75f0-d7bf-4c9a-805d-1ed57d3acaf8}, !- Space Name
  Outdoors,                               !- Outside Boundary Condition
  ,                                       !- Outside Boundary Condition Object
  SunExposed,                             !- Sun Exposure
  WindExposed,                            !- Wind Exposure
  ,                                       !- View Factor to Ground
  ,                                       !- Number of Vertices
  13.6310703908387, 6.81553519541936, 2.4384, !- X,Y,Z Vertex 1 {m}
  13.6310703908387, 6.81553519541936, 0,  !- X,Y,Z Vertex 2 {m}
  0, 6.81553519541936, 0,                 !- X,Y,Z Vertex 3 {m}
  0, 6.81553519541936, 2.4384;            !- X,Y,Z Vertex 4 {m}

OS:Surface,
  {5e871a4c-99a4-4787-9b84-651592a59d9e}, !- Handle
  Surface 10,                             !- Name
  Wall,                                   !- Surface Type
  ,                                       !- Construction Name
  {bfba75f0-d7bf-4c9a-805d-1ed57d3acaf8}, !- Space Name
  Outdoors,                               !- Outside Boundary Condition
  ,                                       !- Outside Boundary Condition Object
  SunExposed,                             !- Sun Exposure
  WindExposed,                            !- Wind Exposure
  ,                                       !- View Factor to Ground
  ,                                       !- Number of Vertices
  13.6310703908387, 0, 2.4384,            !- X,Y,Z Vertex 1 {m}
  13.6310703908387, 0, 0,                 !- X,Y,Z Vertex 2 {m}
  13.6310703908387, 6.81553519541936, 0,  !- X,Y,Z Vertex 3 {m}
  13.6310703908387, 6.81553519541936, 2.4384; !- X,Y,Z Vertex 4 {m}

OS:Surface,
  {9934116b-8f0c-474c-a66b-64aa45dfc18f}, !- Handle
  Surface 11,                             !- Name
  Wall,                                   !- Surface Type
  ,                                       !- Construction Name
  {bfba75f0-d7bf-4c9a-805d-1ed57d3acaf8}, !- Space Name
  Outdoors,                               !- Outside Boundary Condition
  ,                                       !- Outside Boundary Condition Object
  SunExposed,                             !- Sun Exposure
  WindExposed,                            !- Wind Exposure
  ,                                       !- View Factor to Ground
  ,                                       !- Number of Vertices
  6.096, 0, 2.4384,                       !- X,Y,Z Vertex 1 {m}
  6.096, 0, 0,                            !- X,Y,Z Vertex 2 {m}
  13.6310703908387, 0, 0,                 !- X,Y,Z Vertex 3 {m}
  13.6310703908387, 0, 2.4384;            !- X,Y,Z Vertex 4 {m}

OS:Surface,
  {83fa109e-c10a-473e-bf7f-fa75a5f3922b}, !- Handle
  Surface 12,                             !- Name
  Wall,                                   !- Surface Type
  ,                                       !- Construction Name
  {bfba75f0-d7bf-4c9a-805d-1ed57d3acaf8}, !- Space Name
  Surface,                                !- Outside Boundary Condition
  {1f1f60bc-e13f-4f35-bbff-39dad66f7a11}, !- Outside Boundary Condition Object
  NoSun,                                  !- Sun Exposure
  NoWind,                                 !- Wind Exposure
  ,                                       !- View Factor to Ground
  ,                                       !- Number of Vertices
  6.096, 3.048, 2.4384,                   !- X,Y,Z Vertex 1 {m}
  6.096, 3.048, 0,                        !- X,Y,Z Vertex 2 {m}
  6.096, 0, 0,                            !- X,Y,Z Vertex 3 {m}
  6.096, 0, 2.4384;                       !- X,Y,Z Vertex 4 {m}

OS:Surface,
  {d92ee7fd-d3e0-4b8b-8699-3263af105d78}, !- Handle
  Surface 13,                             !- Name
  Wall,                                   !- Surface Type
  ,                                       !- Construction Name
  {bfba75f0-d7bf-4c9a-805d-1ed57d3acaf8}, !- Space Name
  Surface,                                !- Outside Boundary Condition
  {08b6f72f-0ad2-40ab-9f98-62c9615438ee}, !- Outside Boundary Condition Object
  NoSun,                                  !- Sun Exposure
  NoWind,                                 !- Wind Exposure
  ,                                       !- View Factor to Ground
  ,                                       !- Number of Vertices
  0, 3.048, 2.4384,                       !- X,Y,Z Vertex 1 {m}
  0, 3.048, 0,                            !- X,Y,Z Vertex 2 {m}
  6.096, 3.048, 0,                        !- X,Y,Z Vertex 3 {m}
  6.096, 3.048, 2.4384;                   !- X,Y,Z Vertex 4 {m}

OS:Surface,
  {ef78d187-0d57-4081-a29e-188a5cb99c34}, !- Handle
  Surface 14,                             !- Name
  RoofCeiling,                            !- Surface Type
  ,                                       !- Construction Name
  {bfba75f0-d7bf-4c9a-805d-1ed57d3acaf8}, !- Space Name
  Surface,                                !- Outside Boundary Condition
  {686ed5bd-1ed2-4240-ba32-59e6b9ccec5a}, !- Outside Boundary Condition Object
  NoSun,                                  !- Sun Exposure
  NoWind,                                 !- Wind Exposure
  ,                                       !- View Factor to Ground
  ,                                       !- Number of Vertices
  6.096, 3.048, 2.4384,                   !- X,Y,Z Vertex 1 {m}
  6.096, 0, 2.4384,                       !- X,Y,Z Vertex 2 {m}
  13.6310703908387, 0, 2.4384,            !- X,Y,Z Vertex 3 {m}
  13.6310703908387, 6.81553519541936, 2.4384, !- X,Y,Z Vertex 4 {m}
  0, 6.81553519541936, 2.4384,            !- X,Y,Z Vertex 5 {m}
  0, 3.048, 2.4384;                       !- X,Y,Z Vertex 6 {m}

OS:Space,
  {5fc4d2a5-a43e-4682-96cc-b4fce2606404}, !- Handle
  living space|story 2,                   !- Name
  ,                                       !- Space Type Name
  ,                                       !- Default Construction Set Name
  ,                                       !- Default Schedule Set Name
  -0,                                     !- Direction of Relative North {deg}
  0,                                      !- X Origin {m}