!- NOTE: Auto-generated from /test/osw_files/SFD_2000sqft_1story_SL_GRG_FlatRoof.osw

OS:Version,
  {b701ab03-4e3a-4e38-953a-2e0302a57594}, !- Handle
  1.14.0;                                  !- Version Identifier

OS:Building,
  {bf305633-c5a1-4881-9edf-ca5e1a8e1274}, !- Handle
  Building,                               !- Name
  ,                                       !- Building Sector Type
  ,                                       !- North Axis {deg}
  ,                                       !- Nominal Floor to Floor Height {m}
  ,                                       !- Space Type Name
  ,                                       !- Default Construction Set Name
  ,                                       !- Default Schedule Set Name
  1,                                      !- Standards Number of Stories
  1,                                      !- Standards Number of Above Ground Stories
  singlefamilydetached,                   !- Standards Building Type
  1;                                      !- Standards Number of Living Units

OS:YearDescription,
  {513d8dda-86cb-442a-b01c-1f7f0e0ac70e}; !- Handle

OS:SimulationControl,
  {2c487a4c-bac9-4ac5-b669-1e49d9da7c2b}, !- Handle
  ,                                       !- Do Zone Sizing Calculation
  ,                                       !- Do System Sizing Calculation
  ,                                       !- Do Plant Sizing Calculation
  No,                                     !- Run Simulation for Sizing Periods
  ;                                       !- Run Simulation for Weather File Run Periods

OS:Timestep,
  {4ebc9f1e-4707-402e-9844-67eb1ffbd522}, !- Handle
  6;                                      !- Number of Timesteps per Hour

OS:RunPeriod,
  {28df894d-6af9-4fb8-8f56-df1753344aa3}, !- Handle
  Run Period,                             !- Name
  1,                                      !- Begin Month
  1,                                      !- Begin Day of Month
  12,                                     !- End Month
  31,                                     !- End Day of Month
  ,                                       !- Use Weather File Holidays and Special Days
  ,                                       !- Use Weather File Daylight Saving Period
  ,                                       !- Apply Weekend Holiday Rule
  ,                                       !- Use Weather File Rain Indicators
  ,                                       !- Use Weather File Snow Indicators
  ;                                       !- Number of Times Runperiod to be Repeated

OS:Sizing:Parameters,
  {dde5af6f-7923-4600-a28a-7556673a0266}, !- Handle
  1.0,                                    !- Heating Sizing Factor
  1.0;                                    !- Cooling Sizing Factor

OS:ShadowCalculation,
  {ca758bea-4416-4626-9bba-3d8795c79bd6}, !- Handle
  20,                                     !- Calculation Frequency
  200;                                    !- Maximum Figures in Shadow Overlap Calculations

OS:SurfaceConvectionAlgorithm:Inside,
  {aaabfc36-718a-4ab0-b622-f186ebb45230}, !- Handle
  TARP;                                   !- Algorithm

OS:SurfaceConvectionAlgorithm:Outside,
  {9a0a9f6f-4bbd-4b12-a121-9492a1fcd7d6}, !- Handle
  DOE-2;                                  !- Algorithm

OS:HeatBalanceAlgorithm,
  {9d93e563-e1e0-46d7-9e39-d1c8aceb7212}, !- Handle
  ConductionTransferFunction,             !- Algorithm
  200;                                    !- Surface Temperature Upper Limit {C}

OS:ZoneCapacitanceMultiplier:ResearchSpecial,
  {6bfced16-b16f-47f6-8223-f7e267d75d19}, !- Handle
  ,                                       !- Temperature Capacity Multiplier
  15,                                     !- Humidity Capacity Multiplier
  ;                                       !- Carbon Dioxide Capacity Multiplier

OS:ThermalZone,
  {243f9275-191b-41c2-b7aa-ceb1eeffa401}, !- Handle
  living zone,                            !- Name
  ,                                       !- Multiplier
  ,                                       !- Ceiling Height {m}
  ,                                       !- Volume {m3}
  ,                                       !- Floor Area {m2}
  ,                                       !- Zone Inside Convection Algorithm
  ,                                       !- Zone Outside Convection Algorithm
  ,                                       !- Zone Conditioning Equipment List Name
  {a73ab3d3-8967-44ad-93a7-d72928a49891}, !- Zone Air Inlet Port List
  {54e6a30e-5493-42e0-8b7e-f962ca39e458}, !- Zone Air Exhaust Port List
  {34b22309-eb49-4a31-9bc5-731b1b662c42}, !- Zone Air Node Name
  ,                                       !- Zone Return Air Node Name
  ,                                       !- Primary Daylighting Control Name
  ,                                       !- Fraction of Zone Controlled by Primary Daylighting Control
  ,                                       !- Secondary Daylighting Control Name
  ,                                       !- Fraction of Zone Controlled by Secondary Daylighting Control
  ,                                       !- Illuminance Map Name
  ,                                       !- Group Rendering Name
  ,                                       !- Thermostat Name
  No;                                     !- Use Ideal Air Loads

OS:Node,
  {11c49a9c-deef-4f7a-9cc7-95aa76d3b0d7}, !- Handle
  Node 1,                                 !- Name
  {34b22309-eb49-4a31-9bc5-731b1b662c42}, !- Inlet Port
  ;                                       !- Outlet Port

OS:Connection,
  {34b22309-eb49-4a31-9bc5-731b1b662c42}, !- Handle
  {8927b64e-2da3-4431-853a-0cd5e80da8b4}, !- Name
  {243f9275-191b-41c2-b7aa-ceb1eeffa401}, !- Source Object
  11,                                     !- Outlet Port
  {11c49a9c-deef-4f7a-9cc7-95aa76d3b0d7}, !- Target Object
  2;                                      !- Inlet Port

OS:PortList,
  {a73ab3d3-8967-44ad-93a7-d72928a49891}, !- Handle
  Port List 1,                            !- Name
  {243f9275-191b-41c2-b7aa-ceb1eeffa401}; !- HVAC Component

OS:PortList,
  {54e6a30e-5493-42e0-8b7e-f962ca39e458}, !- Handle
  Port List 2,                            !- Name
  {243f9275-191b-41c2-b7aa-ceb1eeffa401}; !- HVAC Component

OS:Sizing:Zone,
  {2b73973b-e05a-4a97-807e-202a037b5ecf}, !- Handle
  {243f9275-191b-41c2-b7aa-ceb1eeffa401}, !- Zone or ZoneList Name
  SupplyAirTemperature,                   !- Zone Cooling Design Supply Air Temperature Input Method
  14,                                     !- Zone Cooling Design Supply Air Temperature {C}
  11.11,                                  !- Zone Cooling Design Supply Air Temperature Difference {deltaC}
  SupplyAirTemperature,                   !- Zone Heating Design Supply Air Temperature Input Method
  40,                                     !- Zone Heating Design Supply Air Temperature {C}
  11.11,                                  !- Zone Heating Design Supply Air Temperature Difference {deltaC}
  0.0085,                                 !- Zone Cooling Design Supply Air Humidity Ratio {kg-H2O/kg-air}
  0.008,                                  !- Zone Heating Design Supply Air Humidity Ratio {kg-H2O/kg-air}
  ,                                       !- Zone Heating Sizing Factor
  ,                                       !- Zone Cooling Sizing Factor
  DesignDay,                              !- Cooling Design Air Flow Method
  ,                                       !- Cooling Design Air Flow Rate {m3/s}
  ,                                       !- Cooling Minimum Air Flow per Zone Floor Area {m3/s-m2}
  ,                                       !- Cooling Minimum Air Flow {m3/s}
  ,                                       !- Cooling Minimum Air Flow Fraction
  DesignDay,                              !- Heating Design Air Flow Method
  ,                                       !- Heating Design Air Flow Rate {m3/s}
  ,                                       !- Heating Maximum Air Flow per Zone Floor Area {m3/s-m2}
  ,                                       !- Heating Maximum Air Flow {m3/s}
  ,                                       !- Heating Maximum Air Flow Fraction
  ,                                       !- Design Zone Air Distribution Effectiveness in Cooling Mode
  ,                                       !- Design Zone Air Distribution Effectiveness in Heating Mode
  No,                                     !- Account for Dedicated Outdoor Air System
  NeutralSupplyAir,                       !- Dedicated Outdoor Air System Control Strategy
  autosize,                               !- Dedicated Outdoor Air Low Setpoint Temperature for Design {C}
  autosize;                               !- Dedicated Outdoor Air High Setpoint Temperature for Design {C}

OS:ZoneHVAC:EquipmentList,
  {5b552b03-f153-46f7-ac88-2a1643497d7f}, !- Handle
  Zone HVAC Equipment List 1,             !- Name
  {243f9275-191b-41c2-b7aa-ceb1eeffa401}; !- Thermal Zone

OS:ThermalZone,
  {e8a51352-1aab-47e1-853c-dd6bb48f6bac}, !- Handle
  garage zone,                            !- Name
  ,                                       !- Multiplier
  ,                                       !- Ceiling Height {m}
  ,                                       !- Volume {m3}
  ,                                       !- Floor Area {m2}
  ,                                       !- Zone Inside Convection Algorithm
  ,                                       !- Zone Outside Convection Algorithm
  ,                                       !- Zone Conditioning Equipment List Name
  {2dc4f373-016d-4e3e-8e59-269e79d5d976}, !- Zone Air Inlet Port List
  {a18fb9e1-a878-4857-875f-4dc85a70dfa0}, !- Zone Air Exhaust Port List
  {91de303d-a2cc-465a-9fcd-d7fafe51dab8}, !- Zone Air Node Name
  ,                                       !- Zone Return Air Node Name
  ,                                       !- Primary Daylighting Control Name
  ,                                       !- Fraction of Zone Controlled by Primary Daylighting Control
  ,                                       !- Secondary Daylighting Control Name
  ,                                       !- Fraction of Zone Controlled by Secondary Daylighting Control
  ,                                       !- Illuminance Map Name
  ,                                       !- Group Rendering Name
  ,                                       !- Thermostat Name
  No;                                     !- Use Ideal Air Loads

OS:Node,
  {7008022e-7b83-4fc5-9542-b51fadd9d703}, !- Handle
  Node 2,                                 !- Name
  {91de303d-a2cc-465a-9fcd-d7fafe51dab8}, !- Inlet Port
  ;                                       !- Outlet Port

OS:Connection,
  {91de303d-a2cc-465a-9fcd-d7fafe51dab8}, !- Handle
  {68636376-9771-4526-b877-650fe13529d5}, !- Name
  {e8a51352-1aab-47e1-853c-dd6bb48f6bac}, !- Source Object
  11,                                     !- Outlet Port
  {7008022e-7b83-4fc5-9542-b51fadd9d703}, !- Target Object
  2;                                      !- Inlet Port

OS:PortList,
  {2dc4f373-016d-4e3e-8e59-269e79d5d976}, !- Handle
  Port List 3,                            !- Name
  {e8a51352-1aab-47e1-853c-dd6bb48f6bac}; !- HVAC Component

OS:PortList,
  {a18fb9e1-a878-4857-875f-4dc85a70dfa0}, !- Handle
  Port List 4,                            !- Name
  {e8a51352-1aab-47e1-853c-dd6bb48f6bac}; !- HVAC Component

OS:Sizing:Zone,
  {208ea76a-35cf-4cf3-821a-b90a60330c20}, !- Handle
  {e8a51352-1aab-47e1-853c-dd6bb48f6bac}, !- Zone or ZoneList Name
  SupplyAirTemperature,                   !- Zone Cooling Design Supply Air Temperature Input Method
  14,                                     !- Zone Cooling Design Supply Air Temperature {C}
  11.11,                                  !- Zone Cooling Design Supply Air Temperature Difference {deltaC}
  SupplyAirTemperature,                   !- Zone Heating Design Supply Air Temperature Input Method
  40,                                     !- Zone Heating Design Supply Air Temperature {C}
  11.11,                                  !- Zone Heating Design Supply Air Temperature Difference {deltaC}
  0.0085,                                 !- Zone Cooling Design Supply Air Humidity Ratio {kg-H2O/kg-air}
  0.008,                                  !- Zone Heating Design Supply Air Humidity Ratio {kg-H2O/kg-air}
  ,                                       !- Zone Heating Sizing Factor
  ,                                       !- Zone Cooling Sizing Factor
  DesignDay,                              !- Cooling Design Air Flow Method
  ,                                       !- Cooling Design Air Flow Rate {m3/s}
  ,                                       !- Cooling Minimum Air Flow per Zone Floor Area {m3/s-m2}
  ,                                       !- Cooling Minimum Air Flow {m3/s}
  ,                                       !- Cooling Minimum Air Flow Fraction
  DesignDay,                              !- Heating Design Air Flow Method
  ,                                       !- Heating Design Air Flow Rate {m3/s}
  ,                                       !- Heating Maximum Air Flow per Zone Floor Area {m3/s-m2}
  ,                                       !- Heating Maximum Air Flow {m3/s}
  ,                                       !- Heating Maximum Air Flow Fraction
  ,                                       !- Design Zone Air Distribution Effectiveness in Cooling Mode
  ,                                       !- Design Zone Air Distribution Effectiveness in Heating Mode
  No,                                     !- Account for Dedicated Outdoor Air System
  NeutralSupplyAir,                       !- Dedicated Outdoor Air System Control Strategy
  autosize,                               !- Dedicated Outdoor Air Low Setpoint Temperature for Design {C}
  autosize;                               !- Dedicated Outdoor Air High Setpoint Temperature for Design {C}

OS:ZoneHVAC:EquipmentList,
  {12794617-4a35-4546-b7b0-ea8c77cd1105}, !- Handle
  Zone HVAC Equipment List 2,             !- Name
  {e8a51352-1aab-47e1-853c-dd6bb48f6bac}; !- Thermal Zone

OS:Space,
  {cbb2d2d2-102f-4836-81e1-e827735d742e}, !- Handle
  garage space,                           !- Name
  ,                                       !- Space Type Name
  ,                                       !- Default Construction Set Name
  ,                                       !- Default Schedule Set Name
  -0,                                     !- Direction of Relative North {deg}
  0,                                      !- X Origin {m}
  0,                                      !- Y Origin {m}
  0,                                      !- Z Origin {m}
  ,                                       !- Building Story Name
  {e8a51352-1aab-47e1-853c-dd6bb48f6bac}, !- Thermal Zone Name
  ,                                       !- Part of Total Floor Area
  ,                                       !- Design Specification Outdoor Air Object Name
  {a5d893ee-6372-4102-a218-b1edc64b60d8}; !- Building Unit Name

OS:Surface,
  {c1a3fb7b-c6b3-4a5c-9c76-d263565bdd66}, !- Handle
  Surface 1,                              !- Name
  Floor,                                  !- Surface Type
  ,                                       !- Construction Name
  {cbb2d2d2-102f-4836-81e1-e827735d742e}, !- Space Name
  Ground,                                 !- Outside Boundary Condition
  ,                                       !- Outside Boundary Condition Object
  NoSun,                                  !- Sun Exposure
  NoWind,                                 !- Wind Exposure
  ,                                       !- View Factor to Ground
  ,                                       !- Number of Vertices
  14.1221447220065, -3.048, 0,            !- X,Y,Z Vertex 1 {m}
  14.1221447220065, 3.048, 0,             !- X,Y,Z Vertex 2 {m}
  20.2181447220065, 3.048, 0,             !- X,Y,Z Vertex 3 {m}
  20.2181447220065, -3.048, 0;            !- X,Y,Z Vertex 4 {m}

OS:Surface,
  {42db6c2e-2957-4a0e-98f5-79cb2442fd3d}, !- Handle
  Surface 2,                              !- Name
  Wall,                                   !- Surface Type
  ,                                       !- Construction Name
  {cbb2d2d2-102f-4836-81e1-e827735d742e}, !- Space Name
  Surface,                                !- Outside Boundary Condition
  {0d7b2f2a-ad75-472b-bd9f-42c23b7c3fd3}, !- Outside Boundary Condition Object
  NoSun,                                  !- Sun Exposure
  NoWind,                                 !- Wind Exposure
  ,                                       !- View Factor to Ground
  ,                                       !- Number of Vertices
  14.1221447220065, 3.048, 2.4384,        !- X,Y,Z Vertex 1 {m}
  14.1221447220065, 3.048, 0,             !- X,Y,Z Vertex 2 {m}
  14.1221447220065, 0, 0,                 !- X,Y,Z Vertex 3 {m}
  14.1221447220065, 0, 2.4384;            !- X,Y,Z Vertex 4 {m}

OS:Surface,
  {f6e07fff-ec0b-4214-890c-d563dcee1fb4}, !- Handle
  Surface 3,                              !- Name
  Wall,                                   !- Surface Type
  ,                                       !- Construction Name
  {cbb2d2d2-102f-4836-81e1-e827735d742e}, !- Space Name
  Surface,                                !- Outside Boundary Condition
  {7f7c91c0-84be-451b-bab4-274e1f26567b}, !- Outside Boundary Condition Object
  NoSun,                                  !- Sun Exposure
  NoWind,                                 !- Wind Exposure
  ,                                       !- View Factor to Ground
  ,                                       !- Number of Vertices
  20.2181447220065, 3.048, 2.4384,        !- X,Y,Z Vertex 1 {m}
  20.2181447220065, 3.048, 0,             !- X,Y,Z Vertex 2 {m}
  14.1221447220065, 3.048, 0,             !- X,Y,Z Vertex 3 {m}
  14.1221447220065, 3.048, 2.4384;        !- X,Y,Z Vertex 4 {m}

OS:Surface,
  {74be81f1-55d2-45ab-ab0e-62fb1e2eb05f}, !- Handle
  Surface 4,                              !- Name
  Wall,                                   !- Surface Type
  ,                                       !- Construction Name
  {cbb2d2d2-102f-4836-81e1-e827735d742e}, !- Space Name
  Outdoors,                               !- Outside Boundary Condition
  ,                                       !- Outside Boundary Condition Object
  SunExposed,                             !- Sun Exposure
  WindExposed,                            !- Wind Exposure
  ,                                       !- View Factor to Ground
  ,                                       !- Number of Vertices
  20.2181447220065, -3.048, 2.4384,       !- X,Y,Z Vertex 1 {m}
  20.2181447220065, -3.048, 0,            !- X,Y,Z Vertex 2 {m}
  20.2181447220065, 3.048, 0,             !- X,Y,Z Vertex 3 {m}
  20.2181447220065, 3.048, 2.4384;        !- X,Y,Z Vertex 4 {m}

OS:Surface,
  {da44b207-76f4-4bdf-bbf9-fd076312b3b9}, !- Handle
  Surface 5,                              !- Name
  Wall,                                   !- Surface Type
  ,                                       !- Construction Name
  {cbb2d2d2-102f-4836-81e1-e827735d742e}, !- Space Name
  Outdoors,                               !- Outside Boundary Condition
  ,                                       !- Outside Boundary Condition Object
  SunExposed,                             !- Sun Exposure
  WindExposed,                            !- Wind Exposure
  ,                                       !- View Factor to Ground
  ,                                       !- Number of Vertices
  14.1221447220065, -3.048, 2.4384,       !- X,Y,Z Vertex 1 {m}
  14.1221447220065, -3.048, 0,            !- X,Y,Z Vertex 2 {m}
  20.2181447220065, -3.048, 0,            !- X,Y,Z Vertex 3 {m}
  20.2181447220065, -3.048, 2.4384;       !- X,Y,Z Vertex 4 {m}

OS:Surface,
  {3f601b86-c977-43eb-a933-774006eaba28}, !- Handle
  Surface 6,                              !- Name
  RoofCeiling,                            !- Surface Type
  ,                                       !- Construction Name
  {cbb2d2d2-102f-4836-81e1-e827735d742e}, !- Space Name
  Outdoors,                               !- Outside Boundary Condition
  ,                                       !- Outside Boundary Condition Object
  SunExposed,                             !- Sun Exposure
  WindExposed,                            !- Wind Exposure
  ,                                       !- View Factor to Ground
  ,                                       !- Number of Vertices
  20.2181447220065, -3.048, 2.4384,       !- X,Y,Z Vertex 1 {m}
  20.2181447220065, 3.048, 2.4384,        !- X,Y,Z Vertex 2 {m}
  14.1221447220065, 3.048, 2.4384,        !- X,Y,Z Vertex 3 {m}
  14.1221447220065, -3.048, 2.4384;       !- X,Y,Z Vertex 4 {m}

OS:Space,
  {72003c33-49df-4156-94c1-145de569f1d6}, !- Handle
  living space,                           !- Name
  ,                                       !- Space Type Name
  ,                                       !- Default Construction Set Name
  ,                                       !- Default Schedule Set Name
  -0,                                     !- Direction of Relative North {deg}
  0,                                      !- X Origin {m}
  0,                                      !- Y Origin {m}
  0,                                      !- Z Origin {m}
  ,                                       !- Building Story Name
  {243f9275-191b-41c2-b7aa-ceb1eeffa401}, !- Thermal Zone Name
  ,                                       !- Part of Total Floor Area
  ,                                       !- Design Specification Outdoor Air Object Name
  {a5d893ee-6372-4102-a218-b1edc64b60d8}; !- Building Unit Name

OS:Surface,
  {9e9e2382-66b5-4283-9aea-e1af3ada8f22}, !- Handle
  Surface 7,                              !- Name
  Floor,                                  !- Surface Type
  ,                                       !- Construction Name
  {72003c33-49df-4156-94c1-145de569f1d6}, !- Space Name
  Ground,                                 !- Outside Boundary Condition
  ,                                       !- Outside Boundary Condition Object
  NoSun,                                  !- Sun Exposure
  NoWind,                                 !- Wind Exposure
  ,                                       !- View Factor to Ground
  ,                                       !- Number of Vertices
  0, 0, 0,                                !- X,Y,Z Vertex 1 {m}
  0, 10.1090723610033, 0,                 !- X,Y,Z Vertex 2 {m}
  20.2181447220065, 10.1090723610033, 0,  !- X,Y,Z Vertex 3 {m}
  20.2181447220065, 3.048, 0,             !- X,Y,Z Vertex 4 {m}
  14.1221447220065, 3.048, 0,             !- X,Y,Z Vertex 5 {m}
  14.1221447220065, 0, 0;                 !- X,Y,Z Vertex 6 {m}

OS:Surface,
  {9b0d09f6-a19b-43d0-93c8-8892a6946140}, !- Handle
  Surface 8,                              !- Name
  Wall,                                   !- Surface Type
  ,                                       !- Construction Name
  {72003c33-49df-4156-94c1-145de569f1d6}, !- Space Name
  Outdoors,                               !- Outside Boundary Condition
  ,                                       !- Outside Boundary Condition Object
  SunExposed,                             !- Sun Exposure
  WindExposed,                            !- Wind Exposure
  ,                                       !- View Factor to Ground
  ,                                       !- Number of Vertices
  0, 10.1090723610033, 2.4384,            !- X,Y,Z Vertex 1 {m}
  0, 10.1090723610033, 0,                 !- X,Y,Z Vertex 2 {m}
  0, 0, 0,                                !- X,Y,Z Vertex 3 {m}
  0, 0, 2.4384;                           !- X,Y,Z Vertex 4 {m}

OS:Surface,
  {e1050ade-2174-41d0-a630-17d07f896797}, !- Handle
  Surface 9,                              !- Name
  Wall,                                   !- Surface Type
  ,                                       !- Construction Name
  {72003c33-49df-4156-94c1-145de569f1d6}, !- Space Name
  Outdoors,                               !- Outside Boundary Condition
  ,                                       !- Outside Boundary Condition Object
  SunExposed,                             !- Sun Exposure
  WindExposed,                            !- Wind Exposure
  ,                                       !- View Factor to Ground
  ,                                       !- Number of Vertices
  20.2181447220065, 10.1090723610033, 2.4384, !- X,Y,Z Vertex 1 {m}
  20.2181447220065, 10.1090723610033, 0,  !- X,Y,Z Vertex 2 {m}
  0, 10.1090723610033, 0,                 !- X,Y,Z Vertex 3 {m}
  0, 10.1090723610033, 2.4384;            !- X,Y,Z Vertex 4 {m}

OS:Surface,
  {6b7c1016-8336-42bd-b7b3-5ff09a322749}, !- Handle
  Surface 10,                             !- Name
  Wall,                                   !- Surface Type
  ,                                       !- Construction Name
  {72003c33-49df-4156-94c1-145de569f1d6}, !- Space Name
  Outdoors,                               !- Outside Boundary Condition
  ,                                       !- Outside Boundary Condition Object
  SunExposed,                             !- Sun Exposure
  WindExposed,                            !- Wind Exposure
  ,                                       !- View Factor to Ground
  ,                                       !- Number of Vertices
  20.2181447220065, 3.048, 2.4384,        !- X,Y,Z Vertex 1 {m}
  20.2181447220065, 3.048, 0,             !- X,Y,Z Vertex 2 {m}
  20.2181447220065, 10.1090723610033, 0,  !- X,Y,Z Vertex 3 {m}
  20.2181447220065, 10.1090723610033, 2.4384; !- X,Y,Z Vertex 4 {m}

OS:Surface,
  {7f7c91c0-84be-451b-bab4-274e1f26567b}, !- Handle
  Surface 11,                             !- Name
  Wall,                                   !- Surface Type
  ,                                       !- Construction Name
  {72003c33-49df-4156-94c1-145de569f1d6}, !- Space Name
  Surface,                                !- Outside Boundary Condition
  {f6e07fff-ec0b-4214-890c-d563dcee1fb4}, !- Outside Boundary Condition Object
  NoSun,                                  !- Sun Exposure
  NoWind,                                 !- Wind Exposure
  ,                                       !- View Factor to Ground
  ,                                       !- Number of Vertices
  14.1221447220065, 3.048, 2.4384,        !- X,Y,Z Vertex 1 {m}
  14.1221447220065, 3.048, 0,             !- X,Y,Z Vertex 2 {m}
  20.2181447220065, 3.048, 0,             !- X,Y,Z Vertex 3 {m}
  20.2181447220065, 3.048, 2.4384;        !- X,Y,Z Vertex 4 {m}

OS:Surface,
  {0d7b2f2a-ad75-472b-bd9f-42c23b7c3fd3}, !- Handle
  Surface 12,                             !- Name
  Wall,                                   !- Surface Type
  ,                                       !- Construction Name
  {72003c33-49df-4156-94c1-145de569f1d6}, !- Space Name
  Surface,                                !- Outside Boundary Condition
  {42db6c2e-2957-4a0e-98f5-79cb2442fd3d}, !- Outside Boundary Condition Object
  NoSun,                                  !- Sun Exposure
  NoWind,                                 !- Wind Exposure
  ,                                       !- View Factor to Ground
  ,                                       !- Number of Vertices
  14.1221447220065, 0, 2.4384,            !- X,Y,Z Vertex 1 {m}
  14.1221447220065, 0, 0,                 !- X,Y,Z Vertex 2 {m}
  14.1221447220065, 3.048, 0,             !- X,Y,Z Vertex 3 {m}
  14.1221447220065, 3.048, 2.4384;        !- X,Y,Z Vertex 4 {m}

OS:Surface,
  {e9071818-97a2-4195-916f-6a82dccd4b5a}, !- Handle
  Surface 13,                             !- Name
  Wall,                                   !- Surface Type
  ,                                       !- Construction Name
  {72003c33-49df-4156-94c1-145de569f1d6}, !- Space Name
  Outdoors,                               !- Outside Boundary Condition
  ,                                       !- Outside Boundary Condition Object
  SunExposed,                             !- Sun Exposure
  WindExposed,                            !- Wind Exposure
  ,                                       !- View Factor to Ground
  ,                                       !- Number of Vertices
  0, 0, 2.4384,                           !- X,Y,Z Vertex 1 {m}
  0, 0, 0,                                !- X,Y,Z Vertex 2 {m}
  14.1221447220065, 0, 0,                 !- X,Y,Z Vertex 3 {m}
  14.1221447220065, 0, 2.4384;            !- X,Y,Z Vertex 4 {m}

OS:Surface,
  {b276b891-cbd7-45ca-8e03-ae33b8552554}, !- Handle
  Surface 14,                             !- Name
  RoofCeiling,                            !- Surface Type
  ,                                       !- Construction Name
  {72003c33-49df-4156-94c1-145de569f1d6}, !- Space Name
  Outdoors,                               !- Outside Boundary Condition
  ,                                       !- Outside Boundary Condition Object
  SunExposed,                             !- Sun Exposure
  WindExposed,                            !- Wind Exposure
  ,                                       !- View Factor to Ground
  ,                                       !- Number of Vertices
  14.1221447220065, 0, 2.4384,            !- X,Y,Z Vertex 1 {m}
  14.1221447220065, 3.048, 2.4384,        !- X,Y,Z Vertex 2 {m}
  20.2181447220065, 3.048, 2.4384,        !- X,Y,Z Vertex 3 {m}
  20.2181447220065, 10.1090723610033, 2.4384, !- X,Y,Z Vertex 4 {m}
  0, 10.1090723610033, 2.4384,            !- X,Y,Z Vertex 5 {m}
  0, 0, 2.4384;                           !- X,Y,Z Vertex 6 {m}

OS:Surface,
  {0cf43603-1201-43e6-868a-c3e8f0452dfe}, !- Handle
  Surface 15,                             !- Name
  Wall,                                   !- Surface Type
  ,                                       !- Construction Name
  {cbb2d2d2-102f-4836-81e1-e827735d742e}, !- Space Name
  Outdoors,                               !- Outside Boundary Condition
  ,                                       !- Outside Boundary Condition Object
  SunExposed,                             !- Sun Exposure