
OS:Version,
  {f276d8a7-1d68-49d1-8eaa-c59415e5cb7e}, !- Handle
  1.9.0;                                  !- Version Identifier

OS:Site,
  {f1158c11-611f-4c41-9d0e-fbfb0405cad2}, !- Handle
  Phoenix Sky Harbor Intl Ap,             !- Name
  33.45,                                  !- Latitude {deg}
  -111.98,                                !- Longitude {deg}
  -7,                                     !- Time Zone {hr}
  337,                                    !- Elevation {m}
  Suburbs;                                !- Terrain

OS:SimulationControl,
  {d4fa4231-20cd-4e8a-ace3-9b2fdf3ac25f}, !- Handle
  Yes,                                    !- Do Zone Sizing Calculation
  No,                                     !- Do System Sizing Calculation
  Yes,                                    !- Do Plant Sizing Calculation
  No,                                     !- Run Simulation for Sizing Periods
  Yes,                                    !- Run Simulation for Weather File Run Periods
  0.05,                                   !- Loads Convergence Tolerance Value
  0.05,                                   !- Temperature Convergence Tolerance Value {deltaC}
  FullExterior,                           !- Solar Distribution
  50;                                     !- Maximum Number of Warmup Days

OS:ThermalZone,
  {83a6faff-baec-419c-a0d5-eaca1338cb0e}, !- Handle
  living_1 Thermal Zone,                  !- Name
  1,                                      !- Multiplier
  2.4384,                                 !- Ceiling Height {m}
  550.47950568,                           !- Volume {m3}
  ,                                       !- Floor Area {m2}
  ,                                       !- Zone Inside Convection Algorithm
  ,                                       !- Zone Outside Convection Algorithm
  ,                                       !- Zone Conditioning Equipment List Name
  {687a390c-02cc-485c-a8fa-b6fddc1a5dfb}, !- Zone Air Inlet Port List
  {eec9ffe8-0f18-41ca-8911-7ca783eb0a5a}, !- Zone Air Exhaust Port List
  {7e909c32-7422-4604-8e75-bcc69a769c53}, !- Zone Air Node Name
  ,                                       !- Zone Return Air Node Name
  ,                                       !- Primary Daylighting Control Name
  ,                                       !- Fraction of Zone Controlled by Primary Daylighting Control
  ,                                       !- Secondary Daylighting Control Name
  ,                                       !- Fraction of Zone Controlled by Secondary Daylighting Control
  ,                                       !- Illuminance Map Name
  {a4de6d43-167a-4cb9-9c3e-737169ed3c1d}, !- Group Rendering Name
  ,                                       !- Thermostat Name
  No;                                     !- Use Ideal Air Loads

OS:Node,
  {b596ddaf-7ac9-44cf-a17b-84e9d3c8fe41}, !- Handle
  {c862fb63-2fa4-4944-ac6f-bf4604a7f40e}, !- Name
  {7e909c32-7422-4604-8e75-bcc69a769c53}, !- Inlet Port
  ;                                       !- Outlet Port

OS:Connection,
  {7e909c32-7422-4604-8e75-bcc69a769c53}, !- Handle
  {4990cce2-2603-4bbc-91da-200182b1b46a}, !- Name
  {83a6faff-baec-419c-a0d5-eaca1338cb0e}, !- Source Object
  11,                                     !- Outlet Port
  {b596ddaf-7ac9-44cf-a17b-84e9d3c8fe41}, !- Target Object
  2;                                      !- Inlet Port

OS:PortList,
  {687a390c-02cc-485c-a8fa-b6fddc1a5dfb}, !- Handle
  {59de1d3c-808b-4770-84a0-6fe11fccd603}, !- Name
  {83a6faff-baec-419c-a0d5-eaca1338cb0e}; !- HVAC Component

OS:PortList,
  {eec9ffe8-0f18-41ca-8911-7ca783eb0a5a}, !- Handle
  {6a8d7d62-22e6-4915-adba-77802ec4fd63}, !- Name
  {83a6faff-baec-419c-a0d5-eaca1338cb0e}; !- HVAC Component

OS:Sizing:Zone,
  {575403e5-2361-43b4-85cf-bca1ddad4a25}, !- Handle
  {83a6faff-baec-419c-a0d5-eaca1338cb0e}, !- Zone or ZoneList Name
  14,                                     !- Zone Cooling Design Supply Air Temperature {C}
  40,                                     !- Zone Heating Design Supply Air Temperature {C}
  0.0085,                                 !- Zone Cooling Design Supply Air Humidity Ratio {kg-H2O/kg-air}
  0.008,                                  !- Zone Heating Design Supply Air Humidity Ratio {kg-H2O/kg-air}
  ,                                       !- Zone Heating Sizing Factor
  ,                                       !- Zone Cooling Sizing Factor
  DesignDay,                              !- Cooling Design Air Flow Method
  ,                                       !- Cooling Design Air Flow Rate {m3/s}
  ,                                       !- Cooling Minimum Air Flow per Zone Floor Area {m3/s-m2}
  ,                                       !- Cooling Minimum Air Flow {m3/s}
  ,                                       !- Cooling Minimum Air Flow Fraction
  DesignDay,                              !- Heating Design Air Flow Method
  ,                                       !- Heating Design Air Flow Rate {m3/s}
  ,                                       !- Heating Maximum Air Flow per Zone Floor Area {m3/s-m2}
  ,                                       !- Heating Maximum Air Flow {m3/s}
  ,                                       !- Heating Maximum Air Flow Fraction
  ,                                       !- Design Zone Air Distribution Effectiveness in Cooling Mode
  ;                                       !- Design Zone Air Distribution Effectiveness in Heating Mode

OS:ZoneHVAC:EquipmentList,
  {e2b6dc5b-6ba4-4a83-ac25-906d520c7cfc}, !- Handle
  {7ff6d3ba-8f66-439c-9708-83454aca0204}, !- Name
  {83a6faff-baec-419c-a0d5-eaca1338cb0e}; !- Thermal Zone

OS:Space,
  {85e79ddc-b03f-4840-a856-6dab6bf5396e}, !- Handle
  living_1,                               !- Name
  {ae7c92e4-bd53-46b7-ab72-b33cbeccb115}, !- Space Type Name
  ,                                       !- Default Construction Set Name
  ,                                       !- Default Schedule Set Name
  0,                                      !- Direction of Relative North {deg}
  -13.2588,                               !- X Origin {m}
  -11.43,                                 !- Y Origin {m}
  0,                                      !- Z Origin {m}
  ,                                       !- Building Story Name
  {83a6faff-baec-419c-a0d5-eaca1338cb0e}, !- Thermal Zone Name
  ,                                       !- Part of Total Floor Area
  ;                                       !- Design Specification Outdoor Air Object Name

OS:ThermalZone,
  {0101699a-cb75-4c48-9b73-c329b8173f3c}, !- Handle
  living_3 Thermal Zone,                  !- Name
  1,                                      !- Multiplier
  6.858,                                  !- Ceiling Height {m}
  778.99646097,                           !- Volume {m3}
  ,                                       !- Floor Area {m2}
  ,                                       !- Zone Inside Convection Algorithm
  ,                                       !- Zone Outside Convection Algorithm
  ,                                       !- Zone Conditioning Equipment List Name
  {793e8db5-e69a-471d-a825-fa2c0b89060e}, !- Zone Air Inlet Port List
  {f6088255-09ac-4676-9752-3dcc3d14d0f4}, !- Zone Air Exhaust Port List
  {0baf682c-6fc2-4cb4-a7b5-b6ce8222ff00}, !- Zone Air Node Name
  ,                                       !- Zone Return Air Node Name
  ,                                       !- Primary Daylighting Control Name
  ,                                       !- Fraction of Zone Controlled by Primary Daylighting Control
  ,                                       !- Secondary Daylighting Control Name
  ,                                       !- Fraction of Zone Controlled by Secondary Daylighting Control
  ,                                       !- Illuminance Map Name
  {4b8c43f5-508e-4e90-8024-6b012a5cb69b}, !- Group Rendering Name
  ,                                       !- Thermostat Name
  No;                                     !- Use Ideal Air Loads

OS:Node,
  {972becc1-e1a5-4746-bcab-4a3aed2b770a}, !- Handle
  {fa01bab7-fef1-492f-b076-7074639bb653}, !- Name
  {0baf682c-6fc2-4cb4-a7b5-b6ce8222ff00}, !- Inlet Port
  ;                                       !- Outlet Port

OS:Connection,
  {0baf682c-6fc2-4cb4-a7b5-b6ce8222ff00}, !- Handle
  {33416c8b-9f66-4c25-afaf-45f3075211ee}, !- Name
  {0101699a-cb75-4c48-9b73-c329b8173f3c}, !- Source Object
  11,                                     !- Outlet Port
  {972becc1-e1a5-4746-bcab-4a3aed2b770a}, !- Target Object
  2;                                      !- Inlet Port

OS:PortList,
  {793e8db5-e69a-471d-a825-fa2c0b89060e}, !- Handle
  {cc027450-ed7c-4f61-8e03-8af756b7052c}, !- Name
  {0101699a-cb75-4c48-9b73-c329b8173f3c}; !- HVAC Component

OS:PortList,
  {f6088255-09ac-4676-9752-3dcc3d14d0f4}, !- Handle
  {b82f6775-8eda-44a6-a725-882da27c5b6c}, !- Name
  {0101699a-cb75-4c48-9b73-c329b8173f3c}; !- HVAC Component

OS:Sizing:Zone,
  {229293c2-9fe2-430b-835b-ee2df78a59cd}, !- Handle
  {0101699a-cb75-4c48-9b73-c329b8173f3c}, !- Zone or ZoneList Name
  14,                                     !- Zone Cooling Design Supply Air Temperature {C}
  40,                                     !- Zone Heating Design Supply Air Temperature {C}
  0.0085,                                 !- Zone Cooling Design Supply Air Humidity Ratio {kg-H2O/kg-air}
  0.008,                                  !- Zone Heating Design Supply Air Humidity Ratio {kg-H2O/kg-air}
  ,                                       !- Zone Heating Sizing Factor
  ,                                       !- Zone Cooling Sizing Factor
  DesignDay,                              !- Cooling Design Air Flow Method
  ,                                       !- Cooling Design Air Flow Rate {m3/s}
  ,                                       !- Cooling Minimum Air Flow per Zone Floor Area {m3/s-m2}
  ,                                       !- Cooling Minimum Air Flow {m3/s}
  ,                                       !- Cooling Minimum Air Flow Fraction
  DesignDay,                              !- Heating Design Air Flow Method
  ,                                       !- Heating Design Air Flow Rate {m3/s}
  ,                                       !- Heating Maximum Air Flow per Zone Floor Area {m3/s-m2}
  ,                                       !- Heating Maximum Air Flow {m3/s}
  ,                                       !- Heating Maximum Air Flow Fraction
  ,                                       !- Design Zone Air Distribution Effectiveness in Cooling Mode
  ;                                       !- Design Zone Air Distribution Effectiveness in Heating Mode

OS:ZoneHVAC:EquipmentList,
  {5f312ba8-8737-41fe-b8fc-92ddc307c1bb}, !- Handle
  {eabc907f-10b1-4a1c-aef6-250c08efaf9c}, !- Name
  {0101699a-cb75-4c48-9b73-c329b8173f3c}; !- Thermal Zone

OS:Space,
  {3eca233d-1ca7-491d-83fa-baa4a58f4575}, !- Handle
  living_3,                               !- Name
  {ae7c92e4-bd53-46b7-ab72-b33cbeccb115}, !- Space Type Name
  ,                                       !- Default Construction Set Name
  ,                                       !- Default Schedule Set Name
  0,                                      !- Direction of Relative North {deg}
  -13.2588,                               !- X Origin {m}
  6.858,                                  !- Y Origin {m}
  0,                                      !- Z Origin {m}
  ,                                       !- Building Story Name
  {0101699a-cb75-4c48-9b73-c329b8173f3c}, !- Thermal Zone Name
  ,                                       !- Part of Total Floor Area
  ;                                       !- Design Specification Outdoor Air Object Name

OS:Surface,
  {4108ce4d-a74a-45a2-a633-9d51ded31cdf}, !- Handle
  Wall39,                                 !- Name
  Wall,                                   !- Surface Type
  ,                                       !- Construction Name
  {f71d5857-d520-4355-89b1-bb452fd14fb6}, !- Space Name
  Outdoors,                               !- Outside Boundary Condition
  ,                                       !- Outside Boundary Condition Object
  SunExposed,                             !- Sun Exposure
  WindExposed,                            !- Wind Exposure
  ,                                       !- View Factor to Ground
  ,                                       !- Number of Vertices
  0, 4.572, 2.4384,                       !- X,Y,Z Vertex 1 {m}
  0, 4.572, 2.20345,                      !- X,Y,Z Vertex 2 {m}
  0, 0, 2.20345,                          !- X,Y,Z Vertex 3 {m}
  0, 0, 2.4384;                           !- X,Y,Z Vertex 4 {m}

OS:ThermalZone,
  {d3a84d7c-591c-4c87-8f8f-9901eada835b}, !- Handle
  finishedbasement_3 Thermal Zone,        !- Name
  1,                                      !- Multiplier
  2.4384,                                 !- Ceiling Height {m}
  443.102021856,                          !- Volume {m3}
  ,                                       !- Floor Area {m2}
  ,                                       !- Zone Inside Convection Algorithm
  ,                                       !- Zone Outside Convection Algorithm
  ,                                       !- Zone Conditioning Equipment List Name
  {d5b723a9-8dc9-44c8-8a71-066e17528e1d}, !- Zone Air Inlet Port List
  {4c9fe855-e407-4061-964a-db261ceeda56}, !- Zone Air Exhaust Port List
  {39bad639-38d0-4dba-a0aa-f1a22f22e316}, !- Zone Air Node Name
  ,                                       !- Zone Return Air Node Name
  ,                                       !- Primary Daylighting Control Name
  ,                                       !- Fraction of Zone Controlled by Primary Daylighting Control
  ,                                       !- Secondary Daylighting Control Name
  ,                                       !- Fraction of Zone Controlled by Secondary Daylighting Control
  ,                                       !- Illuminance Map Name
  {8bf15e3a-2b1d-43ff-bb55-5b0824d1b8ed}, !- Group Rendering Name
  ,                                       !- Thermostat Name
  No;                                     !- Use Ideal Air Loads

OS:Node,
  {20bb1930-3413-4290-9bd4-368719083601}, !- Handle
  {3a52cf18-1420-4082-b525-fda91540e2e9}, !- Name
  {39bad639-38d0-4dba-a0aa-f1a22f22e316}, !- Inlet Port
  ;                                       !- Outlet Port

OS:Connection,
  {39bad639-38d0-4dba-a0aa-f1a22f22e316}, !- Handle
  {3cebd9d2-edfe-4f1b-91d5-1c3f08a5e1bb}, !- Name
  {d3a84d7c-591c-4c87-8f8f-9901eada835b}, !- Source Object
  11,                                     !- Outlet Port
  {20bb1930-3413-4290-9bd4-368719083601}, !- Target Object
  2;                                      !- Inlet Port

OS:PortList,
  {d5b723a9-8dc9-44c8-8a71-066e17528e1d}, !- Handle
  {fba65d5e-3be2-49ec-9aea-3baa4a3a855a}, !- Name
  {d3a84d7c-591c-4c87-8f8f-9901eada835b}; !- HVAC Component

OS:PortList,
  {4c9fe855-e407-4061-964a-db261ceeda56}, !- Handle
  {a002939f-c0de-44fd-a178-f8ca220401dd}, !- Name
  {d3a84d7c-591c-4c87-8f8f-9901eada835b}; !- HVAC Component

OS:Sizing:Zone,
  {fd702118-4b18-471b-9d6f-d84b8d9435e7}, !- Handle
  {d3a84d7c-591c-4c87-8f8f-9901eada835b}, !- Zone or ZoneList Name
  14,                                     !- Zone Cooling Design Supply Air Temperature {C}
  40,                                     !- Zone Heating Design Supply Air Temperature {C}
  0.0085,                                 !- Zone Cooling Design Supply Air Humidity Ratio {kg-H2O/kg-air}
  0.008,                                  !- Zone Heating Design Supply Air Humidity Ratio {kg-H2O/kg-air}
  ,                                       !- Zone Heating Sizing Factor
  ,                                       !- Zone Cooling Sizing Factor
  DesignDay,                              !- Cooling Design Air Flow Method
  ,                                       !- Cooling Design Air Flow Rate {m3/s}
  ,                                       !- Cooling Minimum Air Flow per Zone Floor Area {m3/s-m2}
  ,                                       !- Cooling Minimum Air Flow {m3/s}
  ,                                       !- Cooling Minimum Air Flow Fraction
  DesignDay,                              !- Heating Design Air Flow Method
  ,                                       !- Heating Design Air Flow Rate {m3/s}
  ,                                       !- Heating Maximum Air Flow per Zone Floor Area {m3/s-m2}
  ,                                       !- Heating Maximum Air Flow {m3/s}
  ,                                       !- Heating Maximum Air Flow Fraction
  ,                                       !- Design Zone Air Distribution Effectiveness in Cooling Mode
  ;                                       !- Design Zone Air Distribution Effectiveness in Heating Mode

OS:ZoneHVAC:EquipmentList,
  {7762e2a3-b9c3-4db9-a113-debcbe4f0c84}, !- Handle
  {fffdf220-e71b-4b3c-8411-47e90bbdc78e}, !- Name
  {d3a84d7c-591c-4c87-8f8f-9901eada835b}; !- Thermal Zone

OS:Space,
  {f71d5857-d520-4355-89b1-bb452fd14fb6}, !- Handle
  finishedbasement_3,                     !- Name
  {b16bf629-cd14-4554-8015-bbdf24c49319}, !- Space Type Name
  ,                                       !- Default Construction Set Name
  ,                                       !- Default Schedule Set Name
  0,                                      !- Direction of Relative North {deg}
  -13.2588,                               !- X Origin {m}
  6.858,                                  !- Y Origin {m}
  -2.4384,                                !- Z Origin {m}
  ,                                       !- Building Story Name
  {d3a84d7c-591c-4c87-8f8f-9901eada835b}, !- Thermal Zone Name
  ,                                       !- Part of Total Floor Area
  ;                                       !- Design Specification Outdoor Air Object Name

OS:Surface,
  {9d70c060-fcce-4f63-99f3-3cff9b39ae7f}, !- Handle
  Roof8,                                  !- Name
  RoofCeiling,                            !- Surface Type
  ,                                       !- Construction Name
  {9a58ba82-8905-48ec-b171-e33ac02d4608}, !- Space Name
  Outdoors,                               !- Outside Boundary Condition
  ,                                       !- Outside Boundary Condition Object
  SunExposed,                             !- Sun Exposure
  WindExposed,                            !- Wind Exposure
  ,                                       !- View Factor to Ground
  ,                                       !- Number of Vertices
  7.62, 6.4008, 5.9436,                   !- X,Y,Z Vertex 1 {m}
  7.62, 12.8016, 2.7432,                  !- X,Y,Z Vertex 2 {m}
  0, 12.8016, 2.7432,                     !- X,Y,Z Vertex 3 {m}
  0, 6.4008, 5.9436;                      !- X,Y,Z Vertex 4 {m}

OS:ThermalZone,
  {17deb0ab-37ce-4086-98df-19f5b6d12013}, !- Handle
  garage Thermal Zone,                    !- Name
  1,                                      !- Multiplier
  5.9436,                                 !- Ceiling Height {m}
  475.7230296,                            !- Volume {m3}
  ,                                       !- Floor Area {m2}
  ,                                       !- Zone Inside Convection Algorithm
  ,                                       !- Zone Outside Convection Algorithm
  ,                                       !- Zone Conditioning Equipment List Name
  {99a27bf3-da04-4546-9226-7f1851a83e77}, !- Zone Air Inlet Port List
  {e4bfa29e-e69c-456b-be83-0c0f5318481a}, !- Zone Air Exhaust Port List
  {d71b948b-40c2-4e10-a1f2-a5f5e28fc850}, !- Zone Air Node Name
  ,                                       !- Zone Return Air Node Name
  ,                                       !- Primary Daylighting Control Name
  ,                                       !- Fraction of Zone Controlled by Primary Daylighting Control
  ,                                       !- Secondary Daylighting Control Name
  ,                                       !- Fraction of Zone Controlled by Secondary Daylighting Control
  ,                                       !- Illuminance Map Name
  {9b14e5c1-09d3-4a8a-b292-74c3188c0b7b}, !- Group Rendering Name
  ,                                       !- Thermostat Name
  No;                                     !- Use Ideal Air Loads

OS:Node,
  {e8ebfe7d-766d-4279-a83f-89a62cef8314}, !- Handle
  {a2405f11-9c54-40ae-9636-e1395e253d19}, !- Name
  {d71b948b-40c2-4e10-a1f2-a5f5e28fc850}, !- Inlet Port
  ;                                       !- Outlet Port

OS:Connection,
  {d71b948b-40c2-4e10-a1f2-a5f5e28fc850}, !- Handle
  {0ef2dde2-b318-4a0c-b914-335bf6f08b16}, !- Name
  {17deb0ab-37ce-4086-98df-19f5b6d12013}, !- Source Object
  11,                                     !- Outlet Port
  {e8ebfe7d-766d-4279-a83f-89a62cef8314}, !- Target Object
  2;                                      !- Inlet Port

OS:PortList,
  {99a27bf3-da04-4546-9226-7f1851a83e77}, !- Handle
  {d0f41764-40b7-491f-9134-ba005226a7ee}, !- Name
  {17deb0ab-37ce-4086-98df-19f5b6d12013}; !- HVAC Component

OS:PortList,
  {e4bfa29e-e69c-456b-be83-0c0f5318481a}, !- Handle
  {5ab8b858-cd71-4d13-83df-4d892994c1bd}, !- Name
  {17deb0ab-37ce-4086-98df-19f5b6d12013}; !- HVAC Component

OS:Sizing:Zone,
  {5b6655d0-8097-40db-b2fe-f0d112906a54}, !- Handle
  {17deb0ab-37ce-4086-98df-19f5b6d12013}, !- Zone or ZoneList Name
  14,                                     !- Zone Cooling Design Supply Air Temperature {C}
  40,                                     !- Zone Heating Design Supply Air Temperature {C}
  0.0085,                                 !- Zone Cooling Design Supply Air Humidity Ratio {kg-H2O/kg-air}
  0.008,                                  !- Zone Heating Design Supply Air Humidity Ratio {kg-H2O/kg-air}
  ,                                       !- Zone Heating Sizing Factor
  ,                                       !- Zone Cooling Sizing Factor
  DesignDay,                              !- Cooling Design Air Flow Method
  ,                                       !- Cooling Design Air Flow Rate {m3/s}
  ,                                       !- Cooling Minimum Air Flow per Zone Floor Area {m3/s-m2}
  ,                                       !- Cooling Minimum Air Flow {m3/s}
  ,                                       !- Cooling Minimum Air Flow Fraction
  DesignDay,                              !- Heating Design Air Flow Method
  ,                                       !- Heating Design Air Flow Rate {m3/s}
  ,                                       !- Heating Maximum Air Flow per Zone Floor Area {m3/s-m2}
  ,                                       !- Heating Maximum Air Flow {m3/s}
  ,                                       !- Heating Maximum Air Flow Fraction
  ,                                       !- Design Zone Air Distribution Effectiveness in Cooling Mode
  ;                                       !- Design Zone Air Distribution Effectiveness in Heating Mode

OS:ZoneHVAC:EquipmentList,
  {3e307288-5de9-470a-b654-44e75c8dceb2}, !- Handle
  {6331efe7-b104-4540-8283-23117c6e4bbc}, !- Name
  {17deb0ab-37ce-4086-98df-19f5b6d12013}; !- Thermal Zone

OS:Space,
  {9a58ba82-8905-48ec-b171-e33ac02d4608}, !- Handle
  garage,                                 !- Name
  {766cc138-8eb1-4022-a386-b79822baa73b}, !- Space Type Name
  ,                                       !- Default Construction Set Name
  ,                                       !- Default Schedule Set Name
  0,                                      !- Direction of Relative North {deg}
  5.6388,                                 !- X Origin {m}
  -1.3716,                                !- Y Origin {m}
  0,                                      !- Z Origin {m}
  ,                                       !- Building Story Name
  {17deb0ab-37ce-4086-98df-19f5b6d12013}, !- Thermal Zone Name
  ,                                       !- Part of Total Floor Area
  ;                                       !- Design Specification Outdoor Air Object Name

OS:Surface,
  {dbf72c36-2bfd-4d50-b856-b3efcd620eea}, !- Handle
  Wall9,                                  !- Name
  Wall,                                   !- Surface Type
  ,                                       !- Construction Name
  {f71d5857-d520-4355-89b1-bb452fd14fb6}, !- Space Name
  Surface,                                !- Outside Boundary Condition
  {46982c76-8a71-40a2-9d73-5382304c5d11}, !- Outside Boundary Condition Object
  NoSun,                                  !- Sun Exposure
  NoWind,                                 !- Wind Exposure
  0,                                      !- View Factor to Ground
  ,                                       !- Number of Vertices
  7.3152, -8.2296, 2.4384,                !- X,Y,Z Vertex 1 {m}
  7.3152, -8.2296, 0,                     !- X,Y,Z Vertex 2 {m}
  7.3152, 0, 0,                           !- X,Y,Z Vertex 3 {m}
  7.3152, 0, 2.4384;                      !- X,Y,Z Vertex 4 {m}

OS:SubSurface,
  {c4b66ecb-6531-4a2e-b8bf-0711cf25c41e}, !- Handle
  Wall25-Door2,                           !- Name
  Door,                                   !- Sub Surface Type
  ,                                       !- Construction Name
  {d13abf66-36b8-459d-8876-dc40ac629b8b}, !- Surface Name
  ,                                       !- Outside Boundary Condition Object
  0.5,                                    !- View Factor to Ground
  ,                                       !- Shading Control Name
  ,                                       !- Frame and Divider Name
  1,                                      !- Multiplier
  ,                                       !- Number of Vertices
  4.1148, 0, 2.1336,                      !- X,Y,Z Vertex 1 {m}
  4.1148, 0, 0,                           !- X,Y,Z Vertex 2 {m}
  7.0104, 0, 0,                           !- X,Y,Z Vertex 3 {m}
  7.0104, 0, 2.1336;                      !- X,Y,Z Vertex 4 {m}

OS:Surface,
  {d13abf66-36b8-459d-8876-dc40ac629b8b}, !- Handle
  Wall25,                                 !- Name
  Wall,                                   !- Surface Type
  ,                                       !- Construction Name
  {9a58ba82-8905-48ec-b171-e33ac02d4608}, !- Space Name
  Outdoors,                               !- Outside Boundary Condition
  ,                                       !- Outside Boundary Condition Object
  SunExposed,                             !- Sun Exposure
  WindExposed,                            !- Wind Exposure
  ,                                       !- View Factor to Ground
  ,                                       !- Number of Vertices
  0, 0, 2.4384,                           !- X,Y,Z Vertex 1 {m}
  0, 0, 0,                                !- X,Y,Z Vertex 2 {m}
  7.62, 0, 0,                             !- X,Y,Z Vertex 3 {m}
  7.62, 0, 2.4384;                        !- X,Y,Z Vertex 4 {m}

OS:SubSurface,
  {6a59959b-eaa0-4fc1-a730-076da1b25b0b}, !- Handle
  Wall34-Window1,                         !- Name
  FixedWindow,                            !- Sub Surface Type
  ,                                       !- Construction Name
  {85413377-e7ff-46b7-9586-c1367d4ee449}, !- Surface Name
  ,                                       !- Outside Boundary Condition Object
  0.5,                                    !- View Factor to Ground
  ,                                       !- Shading Control Name
  ,                                       !- Frame and Divider Name
  1,                                      !- Multiplier
  ,                                       !- Number of Vertices
  5.15505393168, 4.572, 4.566513724968,   !- X,Y,Z Vertex 1 {m}
  5.15505393168, 4.572, 3.3685938216,     !- X,Y,Z Vertex 2 {m}
  4.25638930788, 4.572, 3.3685938216,     !- X,Y,Z Vertex 3 {m}
  4.25638930788, 4.572, 4.566513724968;   !- X,Y,Z Vertex 4 {m}

OS:Surface,
  {85413377-e7ff-46b7-9586-c1367d4ee449}, !- Handle
  Wall34,                                 !- Name
  Wall,                                   !- Surface Type
  ,                                       !- Construction Name
  {3eca233d-1ca7-491d-83fa-baa4a58f4575}, !- Space Name
  Outdoors,                               !- Outside Boundary Condition
  ,                                       !- Outside Boundary Condition Object
  SunExposed,                             !- Sun Exposure
  WindExposed,                            !- Wind Exposure
  ,                                       !- View Factor to Ground
  ,                                       !- Number of Vertices
  8.2296, 4.572, 6.858,                   !- X,Y,Z Vertex 1 {m}
  17.0688, 4.572, 2.4384,                 !- X,Y,Z Vertex 2 {m}
  -0.6096, 4.572, 2.4384;                 !- X,Y,Z Vertex 3 {m}

OS:Surface,
  {065c8e46-9dff-49a4-bdb8-db4063cbb8ab}, !- Handle
  Floor3,                                 !- Name
  Floor,                                  !- Surface Type
  ,                                       !- Construction Name
  {f71d5857-d520-4355-89b1-bb452fd14fb6}, !- Space Name
  ground,                                 !- Outside Boundary Condition
  ,                                       !- Outside Boundary Condition Object
  NoSun,                                  !- Sun Exposure
  NoWind,                                 !- Wind Exposure
  0,                                      !- View Factor to Ground
  ,                                       !- Number of Vertices
  18.8976, 4.572, 0,                      !- X,Y,Z Vertex 1 {m}
  18.8976, -8.2296, 0,                    !- X,Y,Z Vertex 2 {m}
  7.3152, -8.2296, 0,                     !- X,Y,Z Vertex 3 {m}
  7.3152, 0, 0,                           !- X,Y,Z Vertex 4 {m}
  0, 0, 0,                                !- X,Y,Z Vertex 5 {m}
  0, 4.572, 0;                            !- X,Y,Z Vertex 6 {m}

OS:Surface,
  {1f813898-43fc-4634-a662-05b40b789b6f}, !- Handle
  Wall33,                                 !- Name
  Wall,                                   !- Surface Type
  ,                                       !- Construction Name