
OS:Version,
  {f85425d6-2e88-4810-ac6a-73fe1104dd2d}, !- Handle
  1.12.2;                                 !- Version Identifier

OS:SimulationControl,
  {f7dde54c-ef2e-4418-87d3-5868a6a10ab7}, !- Handle
  No,                                     !- Do Zone Sizing Calculation
  No,                                     !- Do System Sizing Calculation
  No,                                     !- Do Plant Sizing Calculation
  No,                                     !- Run Simulation for Sizing Periods
  Yes,                                    !- Run Simulation for Weather File Run Periods
  0.05,                                   !- Loads Convergence Tolerance Value
  0.05,                                   !- Temperature Convergence Tolerance Value {deltaC}
  FullExterior,                           !- Solar Distribution
  50;                                     !- Maximum Number of Warmup Days

OS:Surface,
  {ddfab72d-0224-4364-94bb-6cb1f806d185}, !- Handle
  Roof1,                                  !- Name
  RoofCeiling,                            !- Surface Type
  ,                                       !- Construction Name
  {d43ab0e4-e777-4051-a4a7-fb71c694c438}, !- Space Name
  Outdoors,                               !- Outside Boundary Condition
  ,                                       !- Outside Boundary Condition Object
  SunExposed,                             !- Sun Exposure
  WindExposed,                            !- Wind Exposure
  ,                                       !- View Factor to Ground
  ,                                       !- Number of Vertices
  0, 4.572, 2.286,                        !- X,Y,Z Vertex 1 {m}
  0, 0, 0,                                !- X,Y,Z Vertex 2 {m}
  15.24, 0, 0,                            !- X,Y,Z Vertex 3 {m}
  15.24, 4.572, 2.286;                    !- X,Y,Z Vertex 4 {m}

OS:ThermalZone,
  {3d438e5f-7c36-4ca4-9046-5ea5607f6880}, !- Handle
  unfinishedattic Thermal Zone,           !- Name
  ,                                       !- Multiplier
  2.286,                                  !- Ceiling Height {m}
  159.282264375,                          !- Volume {m3}
  ,                                       !- Floor Area {m2}
  ,                                       !- Zone Inside Convection Algorithm
  ,                                       !- Zone Outside Convection Algorithm
  ,                                       !- Zone Conditioning Equipment List Name
  {b9c364bf-b54c-496a-b1fa-ec246271cac9}, !- Zone Air Inlet Port List
  {99d44e58-f1d1-4fb4-9c24-b69492a3d4a4}, !- Zone Air Exhaust Port List
  {b9920107-0367-4442-9cc2-50d5b7ea4ecb}, !- Zone Air Node Name
  ,                                       !- Zone Return Air Node Name
  ,                                       !- Primary Daylighting Control Name
  ,                                       !- Fraction of Zone Controlled by Primary Daylighting Control
  ,                                       !- Secondary Daylighting Control Name
  ,                                       !- Fraction of Zone Controlled by Secondary Daylighting Control
  ,                                       !- Illuminance Map Name
  {bc6b3633-c419-49fa-afae-19288c39c512}, !- Group Rendering Name
  ,                                       !- Thermostat Name
  No;                                     !- Use Ideal Air Loads

OS:Node,
  {e816ab64-3879-46ec-9f34-43b8c4b657c3}, !- Handle
  {4e850d3e-cfd9-4b9e-8daf-53126a1f4607}, !- Name
  {b9920107-0367-4442-9cc2-50d5b7ea4ecb}, !- Inlet Port
  ;                                       !- Outlet Port

OS:Connection,
  {b9920107-0367-4442-9cc2-50d5b7ea4ecb}, !- Handle
  {a192fdfe-cfd6-44e3-8124-c38921e7708e}, !- Name
  {3d438e5f-7c36-4ca4-9046-5ea5607f6880}, !- Source Object
  11,                                     !- Outlet Port
  {e816ab64-3879-46ec-9f34-43b8c4b657c3}, !- Target Object
  2;                                      !- Inlet Port

OS:PortList,
  {b9c364bf-b54c-496a-b1fa-ec246271cac9}, !- Handle
  {63820110-a732-496a-b854-b17460639bd8}, !- Name
  {3d438e5f-7c36-4ca4-9046-5ea5607f6880}; !- HVAC Component

OS:PortList,
  {99d44e58-f1d1-4fb4-9c24-b69492a3d4a4}, !- Handle
  {07661991-6c9a-4b1a-bb92-1d30e1d9fa24}, !- Name
  {3d438e5f-7c36-4ca4-9046-5ea5607f6880}; !- HVAC Component

OS:Sizing:Zone,
  {091cd74c-ee86-4875-8fa1-22f5d681d6f2}, !- Handle
  {3d438e5f-7c36-4ca4-9046-5ea5607f6880}, !- Zone or ZoneList Name
  SupplyAirTemperature,                   !- Zone Cooling Design Supply Air Temperature Input Method
  14,                                     !- Zone Cooling Design Supply Air Temperature {C}
  11.11,                                  !- Zone Cooling Design Supply Air Temperature Difference {deltaC}
  SupplyAirTemperature,                   !- Zone Heating Design Supply Air Temperature Input Method
  40,                                     !- Zone Heating Design Supply Air Temperature {C}
  11.11,                                  !- Zone Heating Design Supply Air Temperature Difference {deltaC}
  0.0085,                                 !- Zone Cooling Design Supply Air Humidity Ratio {kg-H2O/kg-air}
  0.008,                                  !- Zone Heating Design Supply Air Humidity Ratio {kg-H2O/kg-air}
  ,                                       !- Zone Heating Sizing Factor
  ,                                       !- Zone Cooling Sizing Factor
  DesignDay,                              !- Cooling Design Air Flow Method
  ,                                       !- Cooling Design Air Flow Rate {m3/s}
  ,                                       !- Cooling Minimum Air Flow per Zone Floor Area {m3/s-m2}
  ,                                       !- Cooling Minimum Air Flow {m3/s}
  ,                                       !- Cooling Minimum Air Flow Fraction
  DesignDay,                              !- Heating Design Air Flow Method
  ,                                       !- Heating Design Air Flow Rate {m3/s}
  ,                                       !- Heating Maximum Air Flow per Zone Floor Area {m3/s-m2}
  ,                                       !- Heating Maximum Air Flow {m3/s}
  ,                                       !- Heating Maximum Air Flow Fraction
  ,                                       !- Design Zone Air Distribution Effectiveness in Cooling Mode
  ,                                       !- Design Zone Air Distribution Effectiveness in Heating Mode
  No,                                     !- Account for Dedicated Outdoor Air System
  NeutralSupplyAir,                       !- Dedicated Outdoor Air System Control Strategy
  autosize,                               !- Dedicated Outdoor Air Low Setpoint Temperature for Design {C}
  autosize;                               !- Dedicated Outdoor Air High Setpoint Temperature for Design {C}

OS:ZoneHVAC:EquipmentList,
  {1144d2ee-4b9c-4c52-a6fb-66c582219bd7}, !- Handle
  {728863f0-07f2-437a-aab3-901ce5da5f42}, !- Name
  {3d438e5f-7c36-4ca4-9046-5ea5607f6880}; !- Thermal Zone

OS:Space,
  {d43ab0e4-e777-4051-a4a7-fb71c694c438}, !- Handle
  unfinishedattic,                        !- Name
  ,                                       !- Space Type Name
  ,                                       !- Default Construction Set Name
  ,                                       !- Default Schedule Set Name
  0,                                      !- Direction of Relative North {deg}
  -7.62,                                  !- X Origin {m}
  -4.572,                                 !- Y Origin {m}
  4.8768,                                 !- Z Origin {m}
  ,                                       !- Building Story Name
  {3d438e5f-7c36-4ca4-9046-5ea5607f6880}; !- Thermal Zone Name

OS:SubSurface,
  {ccd6bae2-8988-4c25-baf4-8d4a603d7068}, !- Handle
  Wall9-Window1,                          !- Name
  FixedWindow,                            !- Sub Surface Type
  ,                                       !- Construction Name
  {fd706de9-997c-42bb-9a52-9afa5a07e41b}, !- Surface Name
  ,                                       !- Outside Boundary Condition Object
  0.5,                                    !- View Factor to Ground
  ,                                       !- Shading Control Name
  ,                                       !- Frame and Divider Name
  1,                                      !- Multiplier
  ,                                       !- Number of Vertices
  2.848566312, 0, 2.1336,                 !- X,Y,Z Vertex 1 {m}
  2.848566312, 0, 0.988121299344,         !- X,Y,Z Vertex 2 {m}
  3.707890241304, 0, 0.988121299344,      !- X,Y,Z Vertex 3 {m}
  3.707890241304, 0, 2.1336;              !- X,Y,Z Vertex 4 {m}

OS:Surface,
  {fd706de9-997c-42bb-9a52-9afa5a07e41b}, !- Handle
  Wall9,                                  !- Name
  Wall,                                   !- Surface Type
  ,                                       !- Construction Name
  {10503839-5360-4afe-abaa-d375072eb067}, !- Space Name
  Outdoors,                               !- Outside Boundary Condition
  ,                                       !- Outside Boundary Condition Object
  SunExposed,                             !- Sun Exposure
  WindExposed,                            !- Wind Exposure
  ,                                       !- View Factor to Ground
  ,                                       !- Number of Vertices
  0, 0, 2.4384,                           !- X,Y,Z Vertex 1 {m}
  0, 0, 0,                                !- X,Y,Z Vertex 2 {m}
  9.144, 0, 0,                            !- X,Y,Z Vertex 3 {m}
  9.144, 0, 2.4384;                       !- X,Y,Z Vertex 4 {m}

OS:ThermalZone,
  {8b3d3177-1097-41ed-b8f6-c08514f9bc79}, !- Handle
  living_1 Thermal Zone,                  !- Name
  1,                                      !- Multiplier
  2.4384,                                 !- Ceiling Height {m}
  203.8812984,                            !- Volume {m3}
  ,                                       !- Floor Area {m2}
  ,                                       !- Zone Inside Convection Algorithm
  ,                                       !- Zone Outside Convection Algorithm
  ,                                       !- Zone Conditioning Equipment List Name
  {4cb555c7-16d4-43f6-9dbd-aba67071390b}, !- Zone Air Inlet Port List
  {2cb8f7db-a540-42a1-81a6-f84164dc1757}, !- Zone Air Exhaust Port List
  {67e33c28-20a2-4c0e-8ab8-caec807b3765}, !- Zone Air Node Name
  ,                                       !- Zone Return Air Node Name
  ,                                       !- Primary Daylighting Control Name
  ,                                       !- Fraction of Zone Controlled by Primary Daylighting Control
  ,                                       !- Secondary Daylighting Control Name
  ,                                       !- Fraction of Zone Controlled by Secondary Daylighting Control
  ,                                       !- Illuminance Map Name
  {43a69327-a96e-4268-a30e-2cfc7803c203}, !- Group Rendering Name
  ,                                       !- Thermostat Name
  No;                                     !- Use Ideal Air Loads

OS:Node,
  {51cf2d0a-bbdb-4b74-9eb1-cc9f1515ff66}, !- Handle
  {5640e197-d714-43f8-877c-a5bdf69a06c5}, !- Name
  {67e33c28-20a2-4c0e-8ab8-caec807b3765}, !- Inlet Port
  ;                                       !- Outlet Port

OS:Connection,
  {67e33c28-20a2-4c0e-8ab8-caec807b3765}, !- Handle
  {a21f9516-89e2-4091-9d04-0dbc6714b7a3}, !- Name
  {8b3d3177-1097-41ed-b8f6-c08514f9bc79}, !- Source Object
  11,                                     !- Outlet Port
  {51cf2d0a-bbdb-4b74-9eb1-cc9f1515ff66}, !- Target Object
  2;                                      !- Inlet Port

OS:PortList,
  {4cb555c7-16d4-43f6-9dbd-aba67071390b}, !- Handle
  {3c19df13-bd94-4ec4-92db-76657a44ac85}, !- Name
  {8b3d3177-1097-41ed-b8f6-c08514f9bc79}; !- HVAC Component

OS:PortList,
  {2cb8f7db-a540-42a1-81a6-f84164dc1757}, !- Handle
  {2826a412-f4e1-4153-9e52-7d95568699b6}, !- Name
  {8b3d3177-1097-41ed-b8f6-c08514f9bc79}; !- HVAC Component

OS:Sizing:Zone,
  {51deafa5-d9c5-4aca-af3c-111c42ee80be}, !- Handle
  {8b3d3177-1097-41ed-b8f6-c08514f9bc79}, !- Zone or ZoneList Name
  SupplyAirTemperature,                   !- Zone Cooling Design Supply Air Temperature Input Method
  14,                                     !- Zone Cooling Design Supply Air Temperature {C}
  11.11,                                  !- Zone Cooling Design Supply Air Temperature Difference {deltaC}
  SupplyAirTemperature,                   !- Zone Heating Design Supply Air Temperature Input Method
  40,                                     !- Zone Heating Design Supply Air Temperature {C}
  11.11,                                  !- Zone Heating Design Supply Air Temperature Difference {deltaC}
  0.0085,                                 !- Zone Cooling Design Supply Air Humidity Ratio {kg-H2O/kg-air}
  0.008,                                  !- Zone Heating Design Supply Air Humidity Ratio {kg-H2O/kg-air}
  ,                                       !- Zone Heating Sizing Factor
  ,                                       !- Zone Cooling Sizing Factor
  DesignDay,                              !- Cooling Design Air Flow Method
  ,                                       !- Cooling Design Air Flow Rate {m3/s}
  ,                                       !- Cooling Minimum Air Flow per Zone Floor Area {m3/s-m2}
  ,                                       !- Cooling Minimum Air Flow {m3/s}
  ,                                       !- Cooling Minimum Air Flow Fraction
  DesignDay,                              !- Heating Design Air Flow Method
  ,                                       !- Heating Design Air Flow Rate {m3/s}
  ,                                       !- Heating Maximum Air Flow per Zone Floor Area {m3/s-m2}
  ,                                       !- Heating Maximum Air Flow {m3/s}
  ,                                       !- Heating Maximum Air Flow Fraction
  ,                                       !- Design Zone Air Distribution Effectiveness in Cooling Mode
  ,                                       !- Design Zone Air Distribution Effectiveness in Heating Mode
  No,                                     !- Account for Dedicated Outdoor Air System
  NeutralSupplyAir,                       !- Dedicated Outdoor Air System Control Strategy
  autosize,                               !- Dedicated Outdoor Air Low Setpoint Temperature for Design {C}
  autosize;                               !- Dedicated Outdoor Air High Setpoint Temperature for Design {C}

OS:ZoneHVAC:EquipmentList,
  {dcd39529-0d25-441d-9276-1f989dcb7b0b}, !- Handle
  {00b46315-e8a8-40b5-bd19-1089f2abbb6d}, !- Name
  {8b3d3177-1097-41ed-b8f6-c08514f9bc79}; !- Thermal Zone

OS:Space,
  {10503839-5360-4afe-abaa-d375072eb067}, !- Handle
  living_1,                               !- Name
  ,                                       !- Space Type Name
  ,                                       !- Default Construction Set Name
  ,                                       !- Default Schedule Set Name
  0,                                      !- Direction of Relative North {deg}
  -7.62,                                  !- X Origin {m}
  -4.572,                                 !- Y Origin {m}
  0,                                      !- Z Origin {m}
  ,                                       !- Building Story Name
  {8b3d3177-1097-41ed-b8f6-c08514f9bc79}; !- Thermal Zone Name

OS:Surface,
  {9bc094f1-0867-4db8-999d-01196794313a}, !- Handle
  Wall14,                                 !- Name
  Wall,                                   !- Surface Type
  ,                                       !- Construction Name
  {b00e995e-1c99-49d2-afaa-fd3045f2ab66}, !- Space Name
  Outdoors,                               !- Outside Boundary Condition
  ,                                       !- Outside Boundary Condition Object
  SunExposed,                             !- Sun Exposure
  WindExposed,                            !- Wind Exposure
  ,                                       !- View Factor to Ground
  ,                                       !- Number of Vertices
  6.096, 9.144, 2.4384,                   !- X,Y,Z Vertex 1 {m}
  6.096, 9.144, 0,                        !- X,Y,Z Vertex 2 {m}
  0, 9.144, 0,                            !- X,Y,Z Vertex 3 {m}
  0, 9.144, 2.4384;                       !- X,Y,Z Vertex 4 {m}

OS:ThermalZone,
  {27c23907-52b6-4249-8d5d-39a0f3eda4f7}, !- Handle
  living_3 Thermal Zone,                  !- Name
  1,                                      !- Multiplier
  4.8768,                                 !- Ceiling Height {m}
  271.8417312,                            !- Volume {m3}
  ,                                       !- Floor Area {m2}
  ,                                       !- Zone Inside Convection Algorithm
  ,                                       !- Zone Outside Convection Algorithm
  ,                                       !- Zone Conditioning Equipment List Name
  {765e8620-aac7-4b9a-b696-bea3b1badf2b}, !- Zone Air Inlet Port List
  {48a60d65-2385-4ad4-baa3-7b72c6610bf6}, !- Zone Air Exhaust Port List
  {ab7f798b-a865-4429-a71f-ef9fa2e68471}, !- Zone Air Node Name
  ,                                       !- Zone Return Air Node Name
  ,                                       !- Primary Daylighting Control Name
  ,                                       !- Fraction of Zone Controlled by Primary Daylighting Control
  ,                                       !- Secondary Daylighting Control Name
  ,                                       !- Fraction of Zone Controlled by Secondary Daylighting Control
  ,                                       !- Illuminance Map Name
  {a77601b1-17b3-4756-b984-50909b444934}, !- Group Rendering Name
  ,                                       !- Thermostat Name
  No;                                     !- Use Ideal Air Loads

OS:Node,
  {6a7bd1a4-0ba3-4864-8b0d-f159ad3c6519}, !- Handle
  {85084db1-85bd-4049-92c2-c68cadccd172}, !- Name
  {ab7f798b-a865-4429-a71f-ef9fa2e68471}, !- Inlet Port
  ;                                       !- Outlet Port

OS:Connection,
  {ab7f798b-a865-4429-a71f-ef9fa2e68471}, !- Handle
  {8229c1f2-5b24-49a2-970a-bd8b02f61259}, !- Name
  {27c23907-52b6-4249-8d5d-39a0f3eda4f7}, !- Source Object
  11,                                     !- Outlet Port
  {6a7bd1a4-0ba3-4864-8b0d-f159ad3c6519}, !- Target Object
  2;                                      !- Inlet Port

OS:PortList,
  {765e8620-aac7-4b9a-b696-bea3b1badf2b}, !- Handle
  {ca457879-ad10-4054-8074-c70dace5404d}, !- Name
  {27c23907-52b6-4249-8d5d-39a0f3eda4f7}; !- HVAC Component

OS:PortList,
  {48a60d65-2385-4ad4-baa3-7b72c6610bf6}, !- Handle
  {9f0ee938-5314-41a7-9439-c680d53b8509}, !- Name
  {27c23907-52b6-4249-8d5d-39a0f3eda4f7}; !- HVAC Component

OS:Sizing:Zone,
  {299ddb89-f280-468c-bcc2-8b4b8a0c23f2}, !- Handle
  {27c23907-52b6-4249-8d5d-39a0f3eda4f7}, !- Zone or ZoneList Name
  SupplyAirTemperature,                   !- Zone Cooling Design Supply Air Temperature Input Method
  14,                                     !- Zone Cooling Design Supply Air Temperature {C}
  11.11,                                  !- Zone Cooling Design Supply Air Temperature Difference {deltaC}
  SupplyAirTemperature,                   !- Zone Heating Design Supply Air Temperature Input Method
  40,                                     !- Zone Heating Design Supply Air Temperature {C}
  11.11,                                  !- Zone Heating Design Supply Air Temperature Difference {deltaC}
  0.0085,                                 !- Zone Cooling Design Supply Air Humidity Ratio {kg-H2O/kg-air}
  0.008,                                  !- Zone Heating Design Supply Air Humidity Ratio {kg-H2O/kg-air}
  ,                                       !- Zone Heating Sizing Factor
  ,                                       !- Zone Cooling Sizing Factor
  DesignDay,                              !- Cooling Design Air Flow Method
  ,                                       !- Cooling Design Air Flow Rate {m3/s}
  ,                                       !- Cooling Minimum Air Flow per Zone Floor Area {m3/s-m2}
  ,                                       !- Cooling Minimum Air Flow {m3/s}
  ,                                       !- Cooling Minimum Air Flow Fraction
  DesignDay,                              !- Heating Design Air Flow Method
  ,                                       !- Heating Design Air Flow Rate {m3/s}
  ,                                       !- Heating Maximum Air Flow per Zone Floor Area {m3/s-m2}
  ,                                       !- Heating Maximum Air Flow {m3/s}
  ,                                       !- Heating Maximum Air Flow Fraction
  ,                                       !- Design Zone Air Distribution Effectiveness in Cooling Mode
  ,                                       !- Design Zone Air Distribution Effectiveness in Heating Mode
  No,                                     !- Account for Dedicated Outdoor Air System
  NeutralSupplyAir,                       !- Dedicated Outdoor Air System Control Strategy
  autosize,                               !- Dedicated Outdoor Air Low Setpoint Temperature for Design {C}
  autosize;                               !- Dedicated Outdoor Air High Setpoint Temperature for Design {C}

OS:ZoneHVAC:EquipmentList,
  {be022e9d-a1ab-4718-89fe-588b1670996a}, !- Handle
  {f94a4423-9045-47e5-939b-6c24db981e9d}, !- Name
  {27c23907-52b6-4249-8d5d-39a0f3eda4f7}; !- Thermal Zone

OS:Space,
  {b00e995e-1c99-49d2-afaa-fd3045f2ab66}, !- Handle
  living_3,                               !- Name
  ,                                       !- Space Type Name
  ,                                       !- Default Construction Set Name
  ,                                       !- Default Schedule Set Name
  0,                                      !- Direction of Relative North {deg}
  1.524,                                  !- X Origin {m}
  -4.572,                                 !- Y Origin {m}
  0,                                      !- Z Origin {m}
  ,                                       !- Building Story Name
  {27c23907-52b6-4249-8d5d-39a0f3eda4f7}; !- Thermal Zone Name

OS:Surface,
  {928e5f50-5fdc-4e3e-a078-63df94ce9519}, !- Handle
  IntFloor4,                              !- Name
  RoofCeiling,                            !- Surface Type
  ,                                       !- Construction Name
  {5aa3ec7a-1b7c-47cb-9c77-affe44d5c764}, !- Space Name
  Surface,                                !- Outside Boundary Condition
  {e24b86be-c810-4e49-96bc-fc930d253bbc}, !- Outside Boundary Condition Object
  NoSun,                                  !- Sun Exposure
  NoWind,                                 !- Wind Exposure
  0,                                      !- View Factor to Ground
  ,                                       !- Number of Vertices
  6.096, 0, 2.4384,                       !- X,Y,Z Vertex 1 {m}
  6.096, 9.144, 2.4384,                   !- X,Y,Z Vertex 2 {m}
  0, 9.144, 2.4384,                       !- X,Y,Z Vertex 3 {m}
  0, 0, 2.4384;                           !- X,Y,Z Vertex 4 {m}

OS:ThermalZone,
  {bd11e1ad-639c-4388-8f81-faf7141521ac}, !- Handle
  unfinishedbasement Thermal Zone,        !- Name
  1,                                      !- Multiplier
  2.4384,                                 !- Ceiling Height {m}
  135.9208656,                            !- Volume {m3}
  ,                                       !- Floor Area {m2}
  ,                                       !- Zone Inside Convection Algorithm
  ,                                       !- Zone Outside Convection Algorithm
  ,                                       !- Zone Conditioning Equipment List Name
  {2927605f-2a18-4d04-a9fb-71d7d644ef53}, !- Zone Air Inlet Port List
  {3a8df488-0cec-460f-bd89-08ad9bd062dc}, !- Zone Air Exhaust Port List
  {0eee6130-ebeb-461a-b33a-da6098a1a5da}, !- Zone Air Node Name
  ,                                       !- Zone Return Air Node Name
  ,                                       !- Primary Daylighting Control Name
  ,                                       !- Fraction of Zone Controlled by Primary Daylighting Control
  ,                                       !- Secondary Daylighting Control Name
  ,                                       !- Fraction of Zone Controlled by Secondary Daylighting Control
  ,                                       !- Illuminance Map Name
  {bd8c2647-72ce-4f26-ae40-ac596588eab1}, !- Group Rendering Name
  ,                                       !- Thermostat Name
  No;                                     !- Use Ideal Air Loads

OS:Node,
  {8f2dc683-8d14-4d01-8ae0-2936195a9c1d}, !- Handle
  {83396201-c4ea-4384-bbf2-eca296bfa0d0}, !- Name
  {0eee6130-ebeb-461a-b33a-da6098a1a5da}, !- Inlet Port
  ;                                       !- Outlet Port

OS:Connection,
  {0eee6130-ebeb-461a-b33a-da6098a1a5da}, !- Handle
  {cdc3a3f8-dcf5-4fa3-b3f2-b43af4732bf9}, !- Name
  {bd11e1ad-639c-4388-8f81-faf7141521ac}, !- Source Object
  11,                                     !- Outlet Port
  {8f2dc683-8d14-4d01-8ae0-2936195a9c1d}, !- Target Object
  2;                                      !- Inlet Port

OS:PortList,
  {2927605f-2a18-4d04-a9fb-71d7d644ef53}, !- Handle
  {b0a5ca0b-7853-41eb-bb83-bff937f74b7f}, !- Name
  {bd11e1ad-639c-4388-8f81-faf7141521ac}; !- HVAC Component

OS:PortList,
  {3a8df488-0cec-460f-bd89-08ad9bd062dc}, !- Handle
  {fea4032d-fc2c-46c3-b2a1-1d6e10637637}, !- Name
  {bd11e1ad-639c-4388-8f81-faf7141521ac}; !- HVAC Component

OS:Sizing:Zone,
  {01cba1da-8842-4a74-a2c3-2d991e820e93}, !- Handle
  {bd11e1ad-639c-4388-8f81-faf7141521ac}, !- Zone or ZoneList Name
  SupplyAirTemperature,                   !- Zone Cooling Design Supply Air Temperature Input Method
  14,                                     !- Zone Cooling Design Supply Air Temperature {C}
  11.11,                                  !- Zone Cooling Design Supply Air Temperature Difference {deltaC}
  SupplyAirTemperature,                   !- Zone Heating Design Supply Air Temperature Input Method
  40,                                     !- Zone Heating Design Supply Air Temperature {C}
  11.11,                                  !- Zone Heating Design Supply Air Temperature Difference {deltaC}
  0.0085,                                 !- Zone Cooling Design Supply Air Humidity Ratio {kg-H2O/kg-air}
  0.008,                                  !- Zone Heating Design Supply Air Humidity Ratio {kg-H2O/kg-air}
  ,                                       !- Zone Heating Sizing Factor
  ,                                       !- Zone Cooling Sizing Factor
  DesignDay,                              !- Cooling Design Air Flow Method
  ,                                       !- Cooling Design Air Flow Rate {m3/s}
  ,                                       !- Cooling Minimum Air Flow per Zone Floor Area {m3/s-m2}
  ,                                       !- Cooling Minimum Air Flow {m3/s}
  ,                                       !- Cooling Minimum Air Flow Fraction
  DesignDay,                              !- Heating Design Air Flow Method
  ,                                       !- Heating Design Air Flow Rate {m3/s}
  ,                                       !- Heating Maximum Air Flow per Zone Floor Area {m3/s-m2}
  ,                                       !- Heating Maximum Air Flow {m3/s}
  ,                                       !- Heating Maximum Air Flow Fraction
  ,                                       !- Design Zone Air Distribution Effectiveness in Cooling Mode
  ,                                       !- Design Zone Air Distribution Effectiveness in Heating Mode
  No,                                     !- Account for Dedicated Outdoor Air System
  NeutralSupplyAir,                       !- Dedicated Outdoor Air System Control Strategy
  autosize,                               !- Dedicated Outdoor Air Low Setpoint Temperature for Design {C}
  autosize;                               !- Dedicated Outdoor Air High Setpoint Temperature for Design {C}

OS:ZoneHVAC:EquipmentList,
  {c63b158a-294e-4b0c-a0b6-158bf2238294}, !- Handle
  {e9d6972c-8d8b-4631-b710-5a86e73a30e4}, !- Name
  {bd11e1ad-639c-4388-8f81-faf7141521ac}; !- Thermal Zone

OS:Space,
  {5aa3ec7a-1b7c-47cb-9c77-affe44d5c764}, !- Handle
  unfinishedbasement,                     !- Name
  ,                                       !- Space Type Name
  ,                                       !- Default Construction Set Name
  ,                                       !- Default Schedule Set Name
  0,                                      !- Direction of Relative North {deg}
  1.524,                                  !- X Origin {m}
  -4.572,                                 !- Y Origin {m}
  -2.4384,                                !- Z Origin {m}
  ,                                       !- Building Story Name
  {bd11e1ad-639c-4388-8f81-faf7141521ac}; !- Thermal Zone Name

OS:Surface,
  {2d61b386-8176-4a5f-bcf5-4c2b706e03d0}, !- Handle
  Wall5,                                  !- Name
  Wall,                                   !- Surface Type
  ,                                       !- Construction Name
  {5aa3ec7a-1b7c-47cb-9c77-affe44d5c764}, !- Space Name
  ground,                                 !- Outside Boundary Condition
  ,                                       !- Outside Boundary Condition Object
  NoSun,                                  !- Sun Exposure
  NoWind,                                 !- Wind Exposure
  0,                                      !- View Factor to Ground
  ,                                       !- Number of Vertices
  0, 0, 2.4384,                           !- X,Y,Z Vertex 1 {m}
  0, 0, 0,                                !- X,Y,Z Vertex 2 {m}
  6.096, 0, 0,                            !- X,Y,Z Vertex 3 {m}
  6.096, 0, 2.4384;                       !- X,Y,Z Vertex 4 {m}

OS:Surface,