
OS:Version,
  {bdc752f7-8f70-4183-a912-6990b9977d9b}, !- Handle
  1.5.0;                                  !- Version Identifier

OS:Rendering:Color,
  {3684fc4c-d5e1-4713-917d-dd4710de5c0e}, !- Handle
  Rendering Color 1,                      !- Name
  230,                                    !- Rendering Red Value
  157,                                    !- Rendering Green Value
  120;                                    !- Rendering Blue Value

OS:Rendering:Color,
  {a399de07-6f5a-471f-94d9-166e3ff036a2}, !- Handle
  Rendering Color 2,                      !- Name
  120,                                    !- Rendering Red Value
  230,                                    !- Rendering Green Value
  199;                                    !- Rendering Blue Value

OS:Rendering:Color,
  {71442c84-e2b4-4f15-9bb4-399ead4dbb5d}, !- Handle
  Rendering Color 3,                      !- Name
  230,                                    !- Rendering Red Value
  196,                                    !- Rendering Green Value
  120;                                    !- Rendering Blue Value

OS:Rendering:Color,
  {102c4bf8-4ee9-4dc2-a3db-5eaa0bfba20f}, !- Handle
  Rendering Color 4,                      !- Name
  169,                                    !- Rendering Red Value
  31,                                     !- Rendering Green Value
  31;                                     !- Rendering Blue Value

OS:Rendering:Color,
  {dbde3556-a388-43bf-822e-0f16f7ad2ec9}, !- Handle
  Rendering Color 5,                      !- Name
  41,                                     !- Rendering Red Value
  31,                                     !- Rendering Green Value
  169;                                    !- Rendering Blue Value

OS:Rendering:Color,
  {e57e50c5-b880-4154-a331-825f8286cac6}, !- Handle
  Rendering Color 6,                      !- Name
  41,                                     !- Rendering Red Value
  31,                                     !- Rendering Green Value
  169;                                    !- Rendering Blue Value

OS:Rendering:Color,
  {52dba4c8-241d-4335-be40-28a092b2361e}, !- Handle
  Rendering Color 7,                      !- Name
  230,                                    !- Rendering Red Value
  157,                                    !- Rendering Green Value
  120;                                    !- Rendering Blue Value

OS:Rendering:Color,
  {201abaf9-43f1-473c-b19a-6a98f6b13029}, !- Handle
  Rendering Color 8,                      !- Name
  120,                                    !- Rendering Red Value
  230,                                    !- Rendering Green Value
  199;                                    !- Rendering Blue Value

OS:Building,
  {81484b30-dbdb-4d1e-8959-dbf5d2c3e736}, !- Handle
  simple residential geometry,            !- Name
  ,                                       !- Building Sector Type
  ,                                       !- North Axis {deg}
  ,                                       !- Nominal Floor to Floor Height {m}
  ,                                       !- Space Type Name
  ,                                       !- Default Construction Set Name
  ,                                       !- Default Schedule Set Name
  ,                                       !- Standards Number of Stories
  ,                                       !- Standards Number of Above Ground Stories
  ;                                       !- Standards Building Type

OS:Rendering:Color,
  {2ad90be9-7d11-480b-b894-92b2c7b69b51}, !- Handle
  Rendering Color 9,                      !- Name
  41,                                     !- Rendering Red Value
  31,                                     !- Rendering Green Value
  169;                                    !- Rendering Blue Value

OS:Rendering:Color,
  {0c0f582d-dda0-4b7b-85e1-4886ef1170c8}, !- Handle
  Rendering Color 10,                     !- Name
  169,                                    !- Rendering Red Value
  169,                                    !- Rendering Green Value
  31;                                     !- Rendering Blue Value

OS:Rendering:Color,
  {eba87688-a987-418b-b50c-f0a181628c26}, !- Handle
  Rendering Color 11,                     !- Name
  230,                                    !- Rendering Red Value
  157,                                    !- Rendering Green Value
  120;                                    !- Rendering Blue Value

OS:Rendering:Color,
  {b1932bc9-7161-4c11-861a-cff4f673e6d8}, !- Handle
  Rendering Color 12,                     !- Name
  120,                                    !- Rendering Red Value
  149,                                    !- Rendering Green Value
  230;                                    !- Rendering Blue Value

OS:Rendering:Color,
  {4dae2ddd-6cce-4b63-82af-9f2e9e073c64}, !- Handle
  Rendering Color 13,                     !- Name
  230,                                    !- Rendering Red Value
  157,                                    !- Rendering Green Value
  120;                                    !- Rendering Blue Value

OS:DesignSpecification:OutdoorAir,
  {cbcef124-b479-4ce4-a760-015db264d039}, !- Handle
  189.1-2009 - Office - Vending - CZ1-3 Ventilation, !- Name
  Sum,                                    !- Outdoor Air Method
  ,                                       !- Outdoor Air Flow per Person {m3/s-person}
  0.000254,                               !- Outdoor Air Flow per Floor Area {m3/s-m2}
  ,                                       !- Outdoor Air Flow Rate {m3/s}
  ,                                       !- Outdoor Air Flow Air Changes per Hour {1/hr}
  ;                                       !- Outdoor Air Flow Rate Fraction Schedule Name

OS:ThermostatSetpoint:DualSetpoint,
  {4003573c-d167-4e0d-9bfd-f0be63b4d5ee}, !- Handle
  189.1-2009 - Office - Vending - CZ1-3 Thermostat, !- Name
  ,                                       !- Heating Setpoint Temperature Schedule Name
  ;                                       !- Cooling Setpoint Temperature Schedule Name

OS:Rendering:Color,
  {8fad389a-cb0b-4a0a-a42f-122e90fca3c9}, !- Handle
  Rendering Color 14,                     !- Name
  120,                                    !- Rendering Red Value
  230,                                    !- Rendering Green Value
  199;                                    !- Rendering Blue Value

OS:ScheduleTypeLimits,
  {1a912865-18d0-4759-8fee-9e30327f2ef3}, !- Handle
  Fractional,                             !- Name
  0,                                      !- Lower Limit Value {BasedOnField A4}
  1,                                      !- Upper Limit Value {BasedOnField A4}
  Continuous;                             !- Numeric Type

OS:DesignSpecification:OutdoorAir,
  {6161cf89-7b51-4caf-b1a7-f65221756b8e}, !- Handle
  189.1-2009 - Office - WholeBuilding - Lg Office - CZ1-3 Ventilation, !- Name
  Sum,                                    !- Outdoor Air Method
  0.009438948864,                         !- Outdoor Air Flow per Person {m3/s-person}
  ,                                       !- Outdoor Air Flow per Floor Area {m3/s-m2}
  ,                                       !- Outdoor Air Flow Rate {m3/s}
  ,                                       !- Outdoor Air Flow Air Changes per Hour {1/hr}
  ;                                       !- Outdoor Air Flow Rate Fraction Schedule Name

OS:ScheduleTypeLimits,
  {232f2373-1c80-4000-ad96-28276d13c300}, !- Handle
  ActivityLevel 5,                        !- Name
  0,                                      !- Lower Limit Value {BasedOnField A4}
  ,                                       !- Upper Limit Value {BasedOnField A4}
  Continuous,                             !- Numeric Type
  ActivityLevel;                          !- Unit Type

OS:ThermostatSetpoint:DualSetpoint,
  {5b4832fc-4533-4395-9113-278444bd636a}, !- Handle
  189.1-2009 - Office - WholeBuilding - Lg Office - CZ1-3 Thermostat, !- Name
  ,                                       !- Heating Setpoint Temperature Schedule Name
  ;                                       !- Cooling Setpoint Temperature Schedule Name

OS:ScheduleTypeLimits,
  {b05ce74a-b3fa-468a-ac41-5d13a70ddc6e}, !- Handle
  Temperature 3,                          !- Name
  ,                                       !- Lower Limit Value {BasedOnField A4}
  ,                                       !- Upper Limit Value {BasedOnField A4}
  Continuous,                             !- Numeric Type
  Temperature;                            !- Unit Type

OS:ScheduleTypeLimits,
  {f1e9560e-852f-4485-833e-131e765d9793}, !- Handle
  Temperature 5,                          !- Name
  ,                                       !- Lower Limit Value {BasedOnField A4}
  ,                                       !- Upper Limit Value {BasedOnField A4}
  Continuous,                             !- Numeric Type
  Temperature;                            !- Unit Type

OS:Rendering:Color,
  {80d5c52c-6cb7-4174-8a33-7336259678bf}, !- Handle
  Rendering Color 15,                     !- Name
  120,                                    !- Rendering Red Value
  230,                                    !- Rendering Green Value
  199;                                    !- Rendering Blue Value

OS:Rendering:Color,
  {ffc9cd71-7ab1-4fd9-9a0b-6314484b89ac}, !- Handle
  Rendering Color 16,                     !- Name
  120,                                    !- Rendering Red Value
  230,                                    !- Rendering Green Value
  199;                                    !- Rendering Blue Value

OS:Rendering:Color,
  {a75ca254-ad24-45ac-b1fe-8329c33976a5}, !- Handle
  Rendering Color 17,                     !- Name
  230,                                    !- Rendering Red Value
  157,                                    !- Rendering Green Value
  120;                                    !- Rendering Blue Value

OS:Rendering:Color,
  {13ea79d5-da5f-4c73-954f-823835e872f0}, !- Handle
  Rendering Color 18,                     !- Name
  120,                                    !- Rendering Red Value
  230,                                    !- Rendering Green Value
  199;                                    !- Rendering Blue Value

OS:Rendering:Color,
  {2fd31068-9fe0-4c6b-bf91-a80e435e4e4d}, !- Handle
  Rendering Color 19,                     !- Name
  230,                                    !- Rendering Red Value
  196,                                    !- Rendering Green Value
  120;                                    !- Rendering Blue Value

OS:Rendering:Color,
  {6f96de06-cfed-473f-b40f-1453cbd91c56}, !- Handle
  Rendering Color 20,                     !- Name
  169,                                    !- Rendering Red Value
  31,                                     !- Rendering Green Value
  31;                                     !- Rendering Blue Value

OS:Rendering:Color,
  {33e3fb2a-401e-4b86-9e0c-c826c65624b8}, !- Handle
  Rendering Color 21,                     !- Name
  41,                                     !- Rendering Red Value
  31,                                     !- Rendering Green Value
  169;                                    !- Rendering Blue Value

OS:Rendering:Color,
  {2c92f3ee-bb22-4d90-8c40-f93ae9c17920}, !- Handle
  Rendering Color 22,                     !- Name
  41,                                     !- Rendering Red Value
  31,                                     !- Rendering Green Value
  169;                                    !- Rendering Blue Value

OS:DesignSpecification:OutdoorAir,
  {1f6703e9-0fee-4ee0-a652-94e0aee8442f}, !- Handle
  189.1-2009 - Office - IT_Room - CZ4-8 Ventilation, !- Name
  Sum,                                    !- Outdoor Air Method
  ,                                       !- Outdoor Air Flow per Person {m3/s-person}
  0.000254,                               !- Outdoor Air Flow per Floor Area {m3/s-m2}
  ,                                       !- Outdoor Air Flow Rate {m3/s}
  ,                                       !- Outdoor Air Flow Air Changes per Hour {1/hr}
  ;                                       !- Outdoor Air Flow Rate Fraction Schedule Name

OS:ThermostatSetpoint:DualSetpoint,
  {cedef091-b380-4c30-b8df-97eebb77a2da}, !- Handle
  189.1-2009 - Office - IT_Room - CZ4-8 Thermostat, !- Name
  ,                                       !- Heating Setpoint Temperature Schedule Name
  ;                                       !- Cooling Setpoint Temperature Schedule Name

OS:Rendering:Color,
  {8c495ba2-6aed-49ae-a109-59574da9fefa}, !- Handle
  Rendering Color 23,                     !- Name
  230,                                    !- Rendering Red Value
  157,                                    !- Rendering Green Value
  120;                                    !- Rendering Blue Value

OS:DesignSpecification:OutdoorAir,
  {cca775ff-b083-4b33-bd66-1c5aef39f3a1}, !- Handle
  189.1-2009 - Office - Lobby - CZ4-8 Ventilation, !- Name
  Sum,                                    !- Outdoor Air Method
  0.007079211648,                         !- Outdoor Air Flow per Person {m3/s-person}
  ,                                       !- Outdoor Air Flow per Floor Area {m3/s-m2}
  ,                                       !- Outdoor Air Flow Rate {m3/s}
  ,                                       !- Outdoor Air Flow Air Changes per Hour {1/hr}
  ;                                       !- Outdoor Air Flow Rate Fraction Schedule Name

OS:ThermostatSetpoint:DualSetpoint,
  {852cf732-13b8-4dd0-8a43-f1ee69fea483}, !- Handle
  189.1-2009 - Office - Lobby - CZ4-8 Thermostat, !- Name
  ,                                       !- Heating Setpoint Temperature Schedule Name
  ;                                       !- Cooling Setpoint Temperature Schedule Name

OS:Rendering:Color,
  {e21edddc-77b5-40dc-8428-5c0829080d52}, !- Handle
  Rendering Color 24,                     !- Name
  120,                                    !- Rendering Red Value
  230,                                    !- Rendering Green Value
  199;                                    !- Rendering Blue Value

OS:DesignSpecification:OutdoorAir,
  {e698a910-d140-4f71-b2ec-b1b5e7415447}, !- Handle
  189.1-2009 - Office - OpenOffice - CZ4-8 Ventilation, !- Name
  Sum,                                    !- Outdoor Air Method
  0.009438948864,                         !- Outdoor Air Flow per Person {m3/s-person}
  ,                                       !- Outdoor Air Flow per Floor Area {m3/s-m2}
  ,                                       !- Outdoor Air Flow Rate {m3/s}
  ,                                       !- Outdoor Air Flow Air Changes per Hour {1/hr}
  ;                                       !- Outdoor Air Flow Rate Fraction Schedule Name

OS:ThermostatSetpoint:DualSetpoint,
  {b6b8c221-4c85-42cd-8d38-344c03b07404}, !- Handle
  189.1-2009 - Office - OpenOffice - CZ4-8 Thermostat, !- Name
  ,                                       !- Heating Setpoint Temperature Schedule Name
  ;                                       !- Cooling Setpoint Temperature Schedule Name

OS:Rendering:Color,
  {605919bf-670f-4a7d-b070-a7ab58ce5157}, !- Handle
  Rendering Color 25,                     !- Name
  41,                                     !- Rendering Red Value
  31,                                     !- Rendering Green Value
  169;                                    !- Rendering Blue Value

OS:DesignSpecification:OutdoorAir,
  {6a878184-f1f5-4983-a1f7-9a7cd31b984d}, !- Handle
  189.1-2009 - Office - PrintRoom - CZ4-8 Ventilation, !- Name
  Sum,                                    !- Outdoor Air Method
  ,                                       !- Outdoor Air Flow per Person {m3/s-person}
  0.000254,                               !- Outdoor Air Flow per Floor Area {m3/s-m2}
  ,                                       !- Outdoor Air Flow Rate {m3/s}
  ,                                       !- Outdoor Air Flow Air Changes per Hour {1/hr}
  ;                                       !- Outdoor Air Flow Rate Fraction Schedule Name

OS:ThermostatSetpoint:DualSetpoint,
  {8491e1b8-43a7-4fef-9e10-3c872ebb55d2}, !- Handle
  189.1-2009 - Office - PrintRoom - CZ4-8 Thermostat, !- Name
  ,                                       !- Heating Setpoint Temperature Schedule Name
  ;                                       !- Cooling Setpoint Temperature Schedule Name

OS:Rendering:Color,
  {e87dda49-bb52-41e6-9df0-b61fa0e01e21}, !- Handle
  Rendering Color 26,                     !- Name
  169,                                    !- Rendering Red Value
  169,                                    !- Rendering Green Value
  31;                                     !- Rendering Blue Value

OS:DesignSpecification:OutdoorAir,
  {3d7efbf2-fc4d-4293-a8d8-83d0d329cf7e}, !- Handle
  189.1-2009 - Office - Restroom - CZ4-8 Ventilation, !- Name
  Sum,                                    !- Outdoor Air Method
  ,                                       !- Outdoor Air Flow per Person {m3/s-person}
  0.0048768,                              !- Outdoor Air Flow per Floor Area {m3/s-m2}
  ,                                       !- Outdoor Air Flow Rate {m3/s}
  ,                                       !- Outdoor Air Flow Air Changes per Hour {1/hr}
  ;                                       !- Outdoor Air Flow Rate Fraction Schedule Name

OS:ThermostatSetpoint:DualSetpoint,
  {8e2ee3ea-5b46-4d00-a333-5b4b2c810840}, !- Handle
  189.1-2009 - Office - Restroom - CZ4-8 Thermostat, !- Name
  ,                                       !- Heating Setpoint Temperature Schedule Name
  ;                                       !- Cooling Setpoint Temperature Schedule Name

OS:Rendering:Color,
  {e422c175-20db-4ef8-9eb8-a0e1a8aaac9a}, !- Handle
  Rendering Color 27,                     !- Name
  230,                                    !- Rendering Red Value
  157,                                    !- Rendering Green Value
  120;                                    !- Rendering Blue Value

OS:DesignSpecification:OutdoorAir,
  {0702222b-f6e7-4072-a2a6-8c81fdaf502b}, !- Handle
  189.1-2009 - Office - Stair - CZ4-8 Ventilation, !- Name
  Sum,                                    !- Outdoor Air Method
  ,                                       !- Outdoor Air Flow per Person {m3/s-person}
  0.000254,                               !- Outdoor Air Flow per Floor Area {m3/s-m2}
  ,                                       !- Outdoor Air Flow Rate {m3/s}
  ,                                       !- Outdoor Air Flow Air Changes per Hour {1/hr}
  ;                                       !- Outdoor Air Flow Rate Fraction Schedule Name

OS:ThermostatSetpoint:DualSetpoint,
  {459b9595-1c0f-46ba-8f25-670e234245d5}, !- Handle
  189.1-2009 - Office - Stair - CZ4-8 Thermostat, !- Name
  ,                                       !- Heating Setpoint Temperature Schedule Name
  ;                                       !- Cooling Setpoint Temperature Schedule Name

OS:Rendering:Color,
  {d4d4bd0e-a0a9-4eb5-b9cc-33e75fdfe827}, !- Handle
  Rendering Color 28,                     !- Name
  120,                                    !- Rendering Red Value
  149,                                    !- Rendering Green Value
  230;                                    !- Rendering Blue Value

OS:DesignSpecification:OutdoorAir,
  {a55db755-3184-4e37-aa33-e1800bd4f6ad}, !- Handle
  189.1-2009 - Office - Storage - CZ4-8 Ventilation, !- Name
  Sum,                                    !- Outdoor Air Method
  ,                                       !- Outdoor Air Flow per Person {m3/s-person}
  0.000254,                               !- Outdoor Air Flow per Floor Area {m3/s-m2}
  ,                                       !- Outdoor Air Flow Rate {m3/s}
  ,                                       !- Outdoor Air Flow Air Changes per Hour {1/hr}
  ;                                       !- Outdoor Air Flow Rate Fraction Schedule Name

OS:ThermostatSetpoint:DualSetpoint,
  {7ab6b78a-8812-4292-b0f7-4034597e17a8}, !- Handle
  189.1-2009 - Office - Storage - CZ4-8 Thermostat, !- Name
  ,                                       !- Heating Setpoint Temperature Schedule Name
  ;                                       !- Cooling Setpoint Temperature Schedule Name

OS:Rendering:Color,
  {6fecc3f6-6429-4822-9528-11e6ec257bc2}, !- Handle
  Rendering Color 29,                     !- Name
  230,                                    !- Rendering Red Value
  157,                                    !- Rendering Green Value
  120;                                    !- Rendering Blue Value

OS:DesignSpecification:OutdoorAir,
  {efb974ae-f8ed-408b-a575-e512ace6b509}, !- Handle
  189.1-2009 - Office - Vending - CZ4-8 Ventilation, !- Name
  Sum,                                    !- Outdoor Air Method
  ,                                       !- Outdoor Air Flow per Person {m3/s-person}
  0.000254,                               !- Outdoor Air Flow per Floor Area {m3/s-m2}
  ,                                       !- Outdoor Air Flow Rate {m3/s}
  ,                                       !- Outdoor Air Flow Air Changes per Hour {1/hr}
  ;                                       !- Outdoor Air Flow Rate Fraction Schedule Name

OS:ThermostatSetpoint:DualSetpoint,
  {a52e5676-5ffc-4f5b-956d-c2d63a8eaf40}, !- Handle
  189.1-2009 - Office - Vending - CZ4-8 Thermostat, !- Name
  ,                                       !- Heating Setpoint Temperature Schedule Name
  ;                                       !- Cooling Setpoint Temperature Schedule Name

OS:Rendering:Color,
  {a9420184-f50e-46a6-a811-44b8479cc246}, !- Handle
  Rendering Color 30,                     !- Name
  120,                                    !- Rendering Red Value
  230,                                    !- Rendering Green Value
  199;                                    !- Rendering Blue Value

OS:DesignSpecification:OutdoorAir,
  {45730a89-3a90-48eb-97ff-c774a45b72b8}, !- Handle
  189.1-2009 - Office - WholeBuilding - Lg Office - CZ4-8 Ventilation, !- Name
  Sum,                                    !- Outdoor Air Method
  0.009438948864,                         !- Outdoor Air Flow per Person {m3/s-person}
  ,                                       !- Outdoor Air Flow per Floor Area {m3/s-m2}
  ,                                       !- Outdoor Air Flow Rate {m3/s}
  ,                                       !- Outdoor Air Flow Air Changes per Hour {1/hr}
  ;                                       !- Outdoor Air Flow Rate Fraction Schedule Name

OS:ThermostatSetpoint:DualSetpoint,
  {ca4a44bf-dad4-41e9-93f2-abbacc606770}, !- Handle
  189.1-2009 - Office - WholeBuilding - Lg Office - CZ4-8 Thermostat, !- Name
  ,                                       !- Heating Setpoint Temperature Schedule Name
  ;                                       !- Cooling Setpoint Temperature Schedule Name

OS:Rendering:Color,
  {ad2db488-9ed3-497e-a0c4-4cf0fb7f3caa}, !- Handle
  Rendering Color 31,                     !- Name
  120,                                    !- Rendering Red Value
  230,                                    !- Rendering Green Value
  199;                                    !- Rendering Blue Value

OS:DesignSpecification:OutdoorAir,
  {48f7f4e2-174e-4299-88a9-99ea3ba4dbad}, !- Handle
  189.1-2009 - Office - WholeBuilding - Md Office - CZ4-8 Ventilation, !- Name
  Sum,                                    !- Outdoor Air Method
  0.009438948864,                         !- Outdoor Air Flow per Person {m3/s-person}
  ,                                       !- Outdoor Air Flow per Floor Area {m3/s-m2}
  ,                                       !- Outdoor Air Flow Rate {m3/s}
  ,                                       !- Outdoor Air Flow Air Changes per Hour {1/hr}
  ;                                       !- Outdoor Air Flow Rate Fraction Schedule Name

OS:ThermostatSetpoint:DualSetpoint,
  {32c0f998-5883-46b2-989d-516131600bd1}, !- Handle
  189.1-2009 - Office - WholeBuilding - Md Office - CZ4-8 Thermostat, !- Name
  ,                                       !- Heating Setpoint Temperature Schedule Name
  ;                                       !- Cooling Setpoint Temperature Schedule Name

OS:Rendering:Color,
  {a645b67d-feda-4149-8c88-cb6262f9fe90}, !- Handle
  Rendering Color 32,                     !- Name
  120,                                    !- Rendering Red Value
  230,                                    !- Rendering Green Value
  199;                                    !- Rendering Blue Value

OS:Facility,
  {22620184-8ed8-4b4a-931e-6ecfab9800bf}; !- Handle

OS:Rendering:Color,
  {bd1db96d-878c-42c3-af03-604301a23ac0}, !- Handle
  Rendering Color 33,                     !- Name
  255,                                    !- Rendering Red Value
  250,                                    !- Rendering Green Value
  205;                                    !- Rendering Blue Value

OS:Rendering:Color,
  {58c7541b-71a2-482f-9a2a-0abc90e2850c}, !- Handle
  Rendering Color 34,                     !- Name
  47,                                     !- Rendering Red Value
  79,                                     !- Rendering Green Value
  79;                                     !- Rendering Blue Value

OS:Rendering:Color,
  {ffe1534b-d70c-4290-8689-c75580442216}, !- Handle
  Rendering Color 35,                     !- Name
  245,                                    !- Rendering Red Value
  255,                                    !- Rendering Green Value
  250;                                    !- Rendering Blue Value

OS:Rendering:Color,
  {dcceb4e5-3705-4a9b-8a39-b465a0b4846a}, !- Handle
  Rendering Color 36,                     !- Name
  85,                                     !- Rendering Red Value
  107,                                    !- Rendering Green Value
  47;                                     !- Rendering Blue Value

OS:Rendering:Color,
  {a00fab1a-b999-475c-8234-433df078f275}, !- Handle
  Rendering Color 37,                     !- Name
  50,                                     !- Rendering Red Value
  205,                                    !- Rendering Green Value
  50;                                     !- Rendering Blue Value

OS:Rendering:Color,
  {96c9d7f6-c240-4bf3-b83c-d11191b65c37}, !- Handle
  Rendering Color 38,                     !- Name
  0,                                      !- Rendering Red Value
  100,                                    !- Rendering Green Value
  0;                                      !- Rendering Blue Value

OS:Rendering:Color,
  {fa9776ac-91d0-4df5-a64e-d9d55adbf4d9}, !- Handle
  Rendering Color 39,                     !- Name
  255,                                    !- Rendering Red Value
  182,                                    !- Rendering Green Value
  193;                                    !- Rendering Blue Value

OS:Rendering:Color,
  {99ea00d8-d57e-4d53-aca8-5a9b1f785f3d}, !- Handle
  Rendering Color 40,                     !- Name
  178,                                    !- Rendering Red Value
  34,                                     !- Rendering Green Value
  34;                                     !- Rendering Blue Value

OS:Rendering:Color,
  {d98101f9-6373-4bca-84d0-08a0cba954d5}, !- Handle
  Rendering Color 41,                     !- Name
  248,                                    !- Rendering Red Value
  248,                                    !- Rendering Green Value
  255;                                    !- Rendering Blue Value

OS:Rendering:Color,
  {11243887-1875-494f-acfa-3f9cfd545048}, !- Handle
  Rendering Color 42,                     !- Name
  139,                                    !- Rendering Red Value
  0,                                      !- Rendering Green Value
  0;                                      !- Rendering Blue Value

OS:Rendering:Color,
  {02b9b34c-4533-4826-a0d3-29edfe322487}, !- Handle
  Rendering Color 43,                     !- Name
  0,                                      !- Rendering Red Value
  255,                                    !- Rendering Green Value
  255;                                    !- Rendering Blue Value

OS:Rendering:Color,
  {13dc5e41-c1ed-4511-be11-0ceaf53a8707}, !- Handle
  Rendering Color 44,                     !- Name
  50,                                     !- Rendering Red Value
  205,                                    !- Rendering Green Value
  50;                                     !- Rendering Blue Value

OS:Rendering:Color,
  {e15e5d4d-ab09-4e6b-943e-b3a4fb88be9f}, !- Handle
  Rendering Color 45,                     !- Name
  210,                                    !- Rendering Red Value
  180,                                    !- Rendering Green Value
  140;                                    !- Rendering Blue Value

OS:Rendering:Color,
  {0f9c5886-a56a-4457-b9ea-11ad965596d4}, !- Handle
  Rendering Color 46,                     !- Name
  250,                                    !- Rendering Red Value
  250,                                    !- Rendering Green Value
  210;                                    !- Rendering Blue Value

OS:Rendering:Color,
  {f59f1e5c-2bd2-478d-8b70-5b39e7ad249c}, !- Handle
  Rendering Color 47,                     !- Name
  0,                                      !- Rendering Red Value
  206,                                    !- Rendering Green Value
  209;                                    !- Rendering Blue Value

OS:Rendering:Color,
  {12cf0745-1f3b-4698-8e55-6e0a6bfba467}, !- Handle
  Rendering Color 48,                     !- Name
  255,                                    !- Rendering Red Value
  255,                                    !- Rendering Green Value
  240;                                    !- Rendering Blue Value

OS:Rendering:Color,
  {dc06c682-9c11-4171-bba4-66aa4a9d91d8}, !- Handle
  Rendering Color 49,                     !- Name
  221,                                    !- Rendering Red Value
  160,                                    !- Rendering Green Value
  221;                                    !- Rendering Blue Value

OS:Rendering:Color,