
OS:Version,
  {2bc69725-83d2-45c8-a420-19a57a4a0eaa}, !- Handle
  1.3.1;                                  !- Version Identifier

OS:Construction,
  {7b78d829-380c-4811-9b2c-08fd3cdea502}, !- Handle
  ExtInsFinWall,                          !- Name
  ,                                       !- Surface Rendering Name
  {ed6a55b3-605f-45ae-9e6b-92dbd8ac5bc0}, !- Layer 1
  {38d0b391-2102-4ba1-9b1b-9e33d51cd102}, !- Layer 2
  {b75abd61-06e9-46c1-9263-1c0f7ba39e39}, !- Layer 3
  {022006f1-0a72-45a4-b423-4bc28d24fcb8}, !- Layer 4
  {340d1344-cc1a-4ffe-a2b8-95758feb8280}, !- Layer 5
  {16899796-f14d-41ba-abed-a96b4e1116cc}; !- Layer 6

OS:Material,
  {ed6a55b3-605f-45ae-9e6b-92dbd8ac5bc0}, !- Handle
  Exterior_Finish_Vinyl_Light,            !- Name
  Rough,                                  !- Roughness
  0.009525,                               !- Thickness {m}
  0.089435,                               !- Conductivity {W/m-K}
  177.822,                                !- Density {kg/m3}
  1046.75,                                !- Specific Heat {J/kg-K}
  0.9,                                    !- Thermal Absorptance
  0.3,                                    !- Solar Absorptance
  0.3;                                    !- Visible Absorptance

OS:Material,
  {38d0b391-2102-4ba1-9b1b-9e33d51cd102}, !- Handle
  Plywood_1_2in,                          !- Name
  Rough,                                  !- Roughness
  0.0127,                                 !- Thickness {m}
  0.1154577,                              !- Conductivity {W/m-K}
  512.64,                                 !- Density {kg/m3}
  1214.23;                                !- Specific Heat {J/kg-K}

OS:Material,
  {16899796-f14d-41ba-abed-a96b4e1116cc}, !- Handle
  GypsumBoard_1_2in,                      !- Name
  Rough,                                  !- Roughness
  0.0127,                                 !- Thickness {m}
  0.1602906,                              !- Conductivity {W/m-K}
  801,                                    !- Density {kg/m3}
  837.4;                                  !- Specific Heat {J/kg-K}

OS:Material,
  {b75abd61-06e9-46c1-9263-1c0f7ba39e39}, !- Handle
  StudandCavity,                          !- Name
  Rough,                                  !- Roughness
  0.0889,                                 !- Thickness {m}
  0.0474350163340529,                     !- Conductivity {W/m-K}
  148.39326,                              !- Density {kg/m3}
  1174.03696966425;                       !- Specific Heat {J/kg-K}

OS:Material,
  {022006f1-0a72-45a4-b423-4bc28d24fcb8}, !- Handle
  Cavity,                                 !- Name
  Rough,                                  !- Roughness
  0.0889,                                 !- Thickness {m}
  0.0465417335833333,                     !- Conductivity {W/m-K}
  119.206822499999,                       !- Density {kg/m3}
  1160.18704077004;                       !- Specific Heat {J/kg-K}

OS:Material,
  {340d1344-cc1a-4ffe-a2b8-95758feb8280}, !- Handle
  StudandCavity 1,                        !- Name
  Rough,                                  !- Roughness
  0.0889,                                 !- Thickness {m}
  0.0474350163340529,                     !- Conductivity {W/m-K}
  148.39326,                              !- Density {kg/m3}
  1174.03696966425;                       !- Specific Heat {J/kg-K}

