
OS:Version,
  {37087ef3-cfb3-458a-a244-62dbaa8f1be7}, !- Handle
  1.3.1;                                  !- Version Identifier

OS:WindowMaterial:SimpleGlazingSystem,
  {44896bcf-43bd-44bf-967c-d03322455baf}, !- Handle
  Triple-Pane Glass,                      !- Name
  1.01965611718189,                       !- U-Factor {W/m2-K}
  0.401118750724206;                      !- Solar Heat Gain Coefficient

OS:Construction,
  {b76994d2-2a42-421a-9d24-96968ccf0126}, !- Handle
  Triple-Pane High-Gain Low-E Insulated Frame Argon Fill, !- Name
  ,                                       !- Surface Rendering Name
  {44896bcf-43bd-44bf-967c-d03322455baf}; !- Layer 1

OS:StandardsInformation:Construction,
  {63d71efa-3469-4cf6-b28a-2ecaf9da9590}, !- Handle
  {b76994d2-2a42-421a-9d24-96968ccf0126}, !- Construction Name
  ExteriorWindow;                         !- Intended Surface Type

