
OS:Version,
  {50c92fb0-c2fc-4c0c-88db-0fe0002b3607}, !- Handle
  1.3.1;                                  !- Version Identifier

OS:ElectricEquipment:Definition,
  {51f3509c-c5e7-48ab-9114-75d7cda45a69}, !- Handle
  25 cu ft. EF = 15.7 side freezer,       !- Name
  EquipmentLevel,                         !- Design Level Calculation Method
  107.681692024549,                       !- Design Level {W}
  ,                                       !- Watts per Space Floor Area {W/m2}
  ,                                       !- Watts per Person {W/person}
  0,                                      !- Fraction Latent
  0,                                      !- Fraction Radiant
  0;                                      !- Fraction Lost

OS:Schedule:Ruleset,
  {5cd9c1b7-1da8-45ac-8f75-9aebd9e006ea}, !- Handle
  refrigerator_ruleset,                   !- Name
  ,                                       !- Schedule Type Limits Name
  {2bcf189b-c417-4920-9fe7-372b5b4abff9}, !- Default Day Schedule Name
  {b1d8a327-cb2d-4deb-8552-fe6ade991f90}, !- Summer Design Day Schedule Name
  {5e799455-5904-475d-be38-8d7f730aa5f1}; !- Winter Design Day Schedule Name

OS:Schedule:Day,
  {2bcf189b-c417-4920-9fe7-372b5b4abff9}, !- Handle
  Schedule Day 1,                         !- Name
  ,                                       !- Schedule Type Limits Name
  ,                                       !- Interpolate to Timestep
  24,                                     !- Hour 1
  0,                                      !- Minute 1
  0;                                      !- Value Until Time 1

OS:Schedule:Rule,
  {d277531d-4eb1-4843-9ea8-d66886fcdc28}, !- Handle
  fridge_weekday_ruleset1,                !- Name
  {5cd9c1b7-1da8-45ac-8f75-9aebd9e006ea}, !- Schedule Ruleset Name
  23,                                     !- Rule Order
  {f9ccbe51-97bb-4a3e-9bcd-851b72034212}, !- Day Schedule Name
  No,                                     !- Apply Sunday
  Yes,                                    !- Apply Monday
  Yes,                                    !- Apply Tuesday
  Yes,                                    !- Apply Wednesday
  Yes,                                    !- Apply Thursday
  Yes,                                    !- Apply Friday
  No,                                     !- Apply Saturday
  ,                                       !- Apply Holiday
  DateRange,                              !- Date Specification Type
  1,                                      !- Start Month
  1,                                      !- Start Day
  1,                                      !- End Month
  31;                                     !- End Day

OS:Schedule:Day,
  {f9ccbe51-97bb-4a3e-9bcd-851b72034212}, !- Handle
  RefrigeratorWinter,                     !- Name
  ,                                       !- Schedule Type Limits Name
  ,                                       !- Interpolate to Timestep
  1,                                      !- Hour 1
  0,                                      !- Minute 1
  0.610948905109489,                      !- Value Until Time 1
  2,                                      !- Hour 2
  0,                                      !- Minute 2
  0.595675182481752,                      !- Value Until Time 2
  3,                                      !- Hour 3
  0,                                      !- Minute 3
  0.580401459854014,                      !- Value Until Time 3
  4,                                      !- Hour 4
  0,                                      !- Minute 4
  0.565127737226277,                      !- Value Until Time 4
  5,                                      !- Hour 5
  0,                                      !- Minute 5
  0.54985401459854,                       !- Value Until Time 5
  6,                                      !- Hour 6
  0,                                      !- Minute 6
  0.54985401459854,                       !- Value Until Time 6
  7,                                      !- Hour 7
  0,                                      !- Minute 7
  0.580401459854014,                      !- Value Until Time 7
  8,                                      !- Hour 8
  0,                                      !- Minute 8
  0.610948905109489,                      !- Value Until Time 8
  9,                                      !- Hour 9
  0,                                      !- Minute 9
  0.626222627737226,                      !- Value Until Time 9
  10,                                     !- Hour 10
  0,                                      !- Minute 10
  0.626222627737226,                      !- Value Until Time 10
  11,                                     !- Hour 11
  0,                                      !- Minute 11
  0.610948905109489,                      !- Value Until Time 11
  12,                                     !- Hour 12
  0,                                      !- Minute 12
  0.610948905109489,                      !- Value Until Time 12
  13,                                     !- Hour 13
  0,                                      !- Minute 13
  0.641496350364963,                      !- Value Until Time 13
  14,                                     !- Hour 14
  0,                                      !- Minute 14
  0.641496350364963,                      !- Value Until Time 14
  15,                                     !- Hour 15
  0,                                      !- Minute 15
  0.641496350364963,                      !- Value Until Time 15
  16,                                     !- Hour 16
  0,                                      !- Minute 16
  0.626222627737226,                      !- Value Until Time 16
  17,                                     !- Hour 17
  0,                                      !- Minute 17
  0.672043795620438,                      !- Value Until Time 17
  18,                                     !- Hour 18
  0,                                      !- Minute 18
  0.733138686131387,                      !- Value Until Time 18
  19,                                     !- Hour 19
  0,                                      !- Minute 19
  0.763686131386861,                      !- Value Until Time 19
  20,                                     !- Hour 20
  0,                                      !- Minute 20
  0.733138686131387,                      !- Value Until Time 20
  21,                                     !- Hour 21
  0,                                      !- Minute 21
  0.717864963503649,                      !- Value Until Time 21
  22,                                     !- Hour 22
  0,                                      !- Minute 22
  0.702591240875912,                      !- Value Until Time 22
  23,                                     !- Hour 23
  0,                                      !- Minute 23
  0.672043795620438,                      !- Value Until Time 23
  24,                                     !- Hour 24
  0,                                      !- Minute 24
  0.626222627737226;                      !- Value Until Time 24

OS:Schedule:Rule,
  {e520ddbf-39ef-4cc2-9f25-f3b7b984a64c}, !- Handle
  fridge_weekend_ruleset1,                !- Name
  {5cd9c1b7-1da8-45ac-8f75-9aebd9e006ea}, !- Schedule Ruleset Name
  22,                                     !- Rule Order
  {e9f3013e-4fa7-4824-86a1-16b57b47ab84}, !- Day Schedule Name
  Yes,                                    !- Apply Sunday
  No,                                     !- Apply Monday
  No,                                     !- Apply Tuesday
  No,                                     !- Apply Wednesday
  No,                                     !- Apply Thursday
  No,                                     !- Apply Friday
  Yes,                                    !- Apply Saturday
  ,                                       !- Apply Holiday
  DateRange,                              !- Date Specification Type
  1,                                      !- Start Month
  1,                                      !- Start Day
  1,                                      !- End Month
  31;                                     !- End Day

OS:Schedule:Day,
  {e9f3013e-4fa7-4824-86a1-16b57b47ab84}, !- Handle
  RefrigeratorWeekend1,                   !- Name
  ,                                       !- Schedule Type Limits Name
  ,                                       !- Interpolate to Timestep
  1,                                      !- Hour 1
  0,                                      !- Minute 1
  0.610948905109489,                      !- Value Until Time 1
  2,                                      !- Hour 2
  0,                                      !- Minute 2
  0.595675182481752,                      !- Value Until Time 2
  3,                                      !- Hour 3
  0,                                      !- Minute 3
  0.580401459854014,                      !- Value Until Time 3
  4,                                      !- Hour 4
  0,                                      !- Minute 4
  0.565127737226277,                      !- Value Until Time 4
  5,                                      !- Hour 5
  0,                                      !- Minute 5
  0.54985401459854,                       !- Value Until Time 5
  6,                                      !- Hour 6
  0,                                      !- Minute 6
  0.54985401459854,                       !- Value Until Time 6
  7,                                      !- Hour 7
  0,                                      !- Minute 7
  0.580401459854014,                      !- Value Until Time 7
  8,                                      !- Hour 8
  0,                                      !- Minute 8
  0.610948905109489,                      !- Value Until Time 8
  9,                                      !- Hour 9
  0,                                      !- Minute 9
  0.626222627737226,                      !- Value Until Time 9
  10,                                     !- Hour 10
  0,                                      !- Minute 10
  0.626222627737226,                      !- Value Until Time 10
  11,                                     !- Hour 11
  0,                                      !- Minute 11
  0.610948905109489,                      !- Value Until Time 11
  12,                                     !- Hour 12
  0,                                      !- Minute 12
  0.610948905109489,                      !- Value Until Time 12
  13,                                     !- Hour 13
  0,                                      !- Minute 13
  0.641496350364963,                      !- Value Until Time 13
  14,                                     !- Hour 14
  0,                                      !- Minute 14
  0.641496350364963,                      !- Value Until Time 14
  15,                                     !- Hour 15
  0,                                      !- Minute 15
  0.641496350364963,                      !- Value Until Time 15
  16,                                     !- Hour 16
  0,                                      !- Minute 16
  0.626222627737226,                      !- Value Until Time 16
  17,                                     !- Hour 17
  0,                                      !- Minute 17
  0.672043795620438,                      !- Value Until Time 17
  18,                                     !- Hour 18
  0,                                      !- Minute 18
  0.733138686131387,                      !- Value Until Time 18
  19,                                     !- Hour 19
  0,                                      !- Minute 19
  0.763686131386861,                      !- Value Until Time 19
  20,                                     !- Hour 20
  0,                                      !- Minute 20
  0.733138686131387,                      !- Value Until Time 20
  21,                                     !- Hour 21
  0,                                      !- Minute 21
  0.717864963503649,                      !- Value Until Time 21
  22,                                     !- Hour 22
  0,                                      !- Minute 22
  0.702591240875912,                      !- Value Until Time 22
  23,                                     !- Hour 23
  0,                                      !- Minute 23
  0.672043795620438,                      !- Value Until Time 23
  24,                                     !- Hour 24
  0,                                      !- Minute 24
  0.626222627737226;                      !- Value Until Time 24

OS:Schedule:Rule,
  {10e238ba-1899-4529-a527-6de9ea9fd992}, !- Handle
  fridge_weekday_ruleset2,                !- Name
  {5cd9c1b7-1da8-45ac-8f75-9aebd9e006ea}, !- Schedule Ruleset Name
  21,                                     !- Rule Order
  {adf053bf-2f55-497b-a641-5d1bc3b66b15}, !- Day Schedule Name
  No,                                     !- Apply Sunday
  Yes,                                    !- Apply Monday
  Yes,                                    !- Apply Tuesday
  Yes,                                    !- Apply Wednesday
  Yes,                                    !- Apply Thursday
  Yes,                                    !- Apply Friday
  No,                                     !- Apply Saturday
  ,                                       !- Apply Holiday
  DateRange,                              !- Date Specification Type
  2,                                      !- Start Month
  1,                                      !- Start Day
  2,                                      !- End Month
  28;                                     !- End Day

OS:Schedule:Day,
  {adf053bf-2f55-497b-a641-5d1bc3b66b15}, !- Handle
  RefrigeratorWeekday2,                   !- Name
  ,                                       !- Schedule Type Limits Name
  ,                                       !- Interpolate to Timestep
  1,                                      !- Hour 1
  0,                                      !- Minute 1
  0.60948905109489,                       !- Value Until Time 1
  2,                                      !- Hour 2
  0,                                      !- Minute 2
  0.594251824817518,                      !- Value Until Time 2
  3,                                      !- Hour 3
  0,                                      !- Minute 3
  0.579014598540146,                      !- Value Until Time 3
  4,                                      !- Hour 4
  0,                                      !- Minute 4
  0.563777372262774,                      !- Value Until Time 4
  5,                                      !- Hour 5
  0,                                      !- Minute 5
  0.548540145985401,                      !- Value Until Time 5
  6,                                      !- Hour 6
  0,                                      !- Minute 6
  0.548540145985401,                      !- Value Until Time 6
  7,                                      !- Hour 7
  0,                                      !- Minute 7
  0.579014598540146,                      !- Value Until Time 7
  8,                                      !- Hour 8
  0,                                      !- Minute 8
  0.60948905109489,                       !- Value Until Time 8
  9,                                      !- Hour 9
  0,                                      !- Minute 9
  0.624726277372263,                      !- Value Until Time 9
  10,                                     !- Hour 10
  0,                                      !- Minute 10
  0.624726277372263,                      !- Value Until Time 10
  11,                                     !- Hour 11
  0,                                      !- Minute 11
  0.60948905109489,                       !- Value Until Time 11
  12,                                     !- Hour 12
  0,                                      !- Minute 12
  0.60948905109489,                       !- Value Until Time 12
  13,                                     !- Hour 13
  0,                                      !- Minute 13
  0.639963503649635,                      !- Value Until Time 13
  14,                                     !- Hour 14
  0,                                      !- Minute 14
  0.639963503649635,                      !- Value Until Time 14
  15,                                     !- Hour 15
  0,                                      !- Minute 15
  0.639963503649635,                      !- Value Until Time 15
  16,                                     !- Hour 16
  0,                                      !- Minute 16
  0.624726277372263,                      !- Value Until Time 16
  17,                                     !- Hour 17
  0,                                      !- Minute 17
  0.670437956204379,                      !- Value Until Time 17
  18,                                     !- Hour 18
  0,                                      !- Minute 18
  0.731386861313868,                      !- Value Until Time 18
  19,                                     !- Hour 19
  0,                                      !- Minute 19
  0.761861313868613,                      !- Value Until Time 19
  20,                                     !- Hour 20
  0,                                      !- Minute 20
  0.731386861313868,                      !- Value Until Time 20
  21,                                     !- Hour 21
  0,                                      !- Minute 21
  0.716149635036496,                      !- Value Until Time 21
  22,                                     !- Hour 22
  0,                                      !- Minute 22
  0.700912408759124,                      !- Value Until Time 22
  23,                                     !- Hour 23
  0,                                      !- Minute 23
  0.670437956204379,                      !- Value Until Time 23
  24,                                     !- Hour 24
  0,                                      !- Minute 24
  0.624726277372263;                      !- Value Until Time 24

OS:Schedule:Rule,
  {b6e977d3-abc1-476a-9b42-c039c468e7be}, !- Handle
  fridge_weekend_ruleset2,                !- Name
  {5cd9c1b7-1da8-45ac-8f75-9aebd9e006ea}, !- Schedule Ruleset Name
  20,                                     !- Rule Order
  {cb0f83b7-4b33-4181-854d-3798666b519b}, !- Day Schedule Name
  Yes,                                    !- Apply Sunday
  No,                                     !- Apply Monday
  No,                                     !- Apply Tuesday
  No,                                     !- Apply Wednesday
  No,                                     !- Apply Thursday
  No,                                     !- Apply Friday
  Yes,                                    !- Apply Saturday
  ,                                       !- Apply Holiday
  DateRange,                              !- Date Specification Type
  2,                                      !- Start Month
  1,                                      !- Start Day
  2,                                      !- End Month
  28;                                     !- End Day

OS:Schedule:Day,
  {cb0f83b7-4b33-4181-854d-3798666b519b}, !- Handle
  RefrigeratorWeekend2,                   !- Name
  ,                                       !- Schedule Type Limits Name
  ,                                       !- Interpolate to Timestep
  1,                                      !- Hour 1
  0,                                      !- Minute 1
  0.60948905109489,                       !- Value Until Time 1
  2,                                      !- Hour 2
  0,                                      !- Minute 2
  0.594251824817518,                      !- Value Until Time 2
  3,                                      !- Hour 3
  0,                                      !- Minute 3
  0.579014598540146,                      !- Value Until Time 3
  4,                                      !- Hour 4
  0,                                      !- Minute 4
  0.563777372262774,                      !- Value Until Time 4
  5,                                      !- Hour 5
  0,                                      !- Minute 5
  0.548540145985401,                      !- Value Until Time 5
  6,                                      !- Hour 6
  0,                                      !- Minute 6
  0.548540145985401,                      !- Value Until Time 6
  7,                                      !- Hour 7
  0,                                      !- Minute 7
  0.579014598540146,                      !- Value Until Time 7
  8,                                      !- Hour 8
  0,                                      !- Minute 8
  0.60948905109489,                       !- Value Until Time 8
  9,                                      !- Hour 9
  0,                                      !- Minute 9
  0.624726277372263,                      !- Value Until Time 9
  10,                                     !- Hour 10
  0,                                      !- Minute 10
  0.624726277372263,                      !- Value Until Time 10
  11,                                     !- Hour 11
  0,                                      !- Minute 11
  0.60948905109489,                       !- Value Until Time 11
  12,                                     !- Hour 12
  0,                                      !- Minute 12
  0.60948905109489,                       !- Value Until Time 12
  13,                                     !- Hour 13
  0,                                      !- Minute 13
  0.639963503649635,                      !- Value Until Time 13
  14,                                     !- Hour 14
  0,                                      !- Minute 14
  0.639963503649635,                      !- Value Until Time 14
  15,                                     !- Hour 15
  0,                                      !- Minute 15
  0.639963503649635,                      !- Value Until Time 15
  16,                                     !- Hour 16
  0,                                      !- Minute 16
  0.624726277372263,                      !- Value Until Time 16
  17,                                     !- Hour 17
  0,                                      !- Minute 17
  0.670437956204379,                      !- Value Until Time 17
  18,                                     !- Hour 18
  0,                                      !- Minute 18
  0.731386861313868,                      !- Value Until Time 18
  19,                                     !- Hour 19
  0,                                      !- Minute 19
  0.761861313868613,                      !- Value Until Time 19
  20,                                     !- Hour 20
  0,                                      !- Minute 20
  0.731386861313868,                      !- Value Until Time 20
  21,                                     !- Hour 21
  0,                                      !- Minute 21
  0.716149635036496,                      !- Value Until Time 21
  22,                                     !- Hour 22
  0,                                      !- Minute 22
  0.700912408759124,                      !- Value Until Time 22
  23,                                     !- Hour 23
  0,                                      !- Minute 23
  0.670437956204379,                      !- Value Until Time 23
  24,                                     !- Hour 24
  0,                                      !- Minute 24
  0.624726277372263;                      !- Value Until Time 24

OS:Schedule:Rule,
  {963c4cbb-0586-4440-81b5-71456ebc5492}, !- Handle
  fridge_weekday_ruleset3,                !- Name
  {5cd9c1b7-1da8-45ac-8f75-9aebd9e006ea}, !- Schedule Ruleset Name
  19,                                     !- Rule Order
  {b34a528a-b127-4b51-8300-e6d57758a799}, !- Day Schedule Name
  No,                                     !- Apply Sunday
  Yes,                                    !- Apply Monday
  Yes,                                    !- Apply Tuesday
  Yes,                                    !- Apply Wednesday
  Yes,                                    !- Apply Thursday
  Yes,                                    !- Apply Friday
  No,                                     !- Apply Saturday
  ,                                       !- Apply Holiday
  DateRange,                              !- Date Specification Type
  3,                                      !- Start Month
  1,                                      !- Start Day
  3,                                      !- End Month
  31;                                     !- End Day

OS:Schedule:Day,
  {b34a528a-b127-4b51-8300-e6d57758a799}, !- Handle
  RefrigeratorWeekday3,                   !- Name
  ,                                       !- Schedule Type Limits Name
  ,                                       !- Interpolate to Timestep
  1,                                      !- Hour 1
  0,                                      !- Minute 1
  0.791240875912409,                      !- Value Until Time 1
  2,                                      !- Hour 2
  0,                                      !- Minute 2
  0.771459854014598,                      !- Value Until Time 2
  3,                                      !- Hour 3
  0,                                      !- Minute 3
  0.751678832116788,                      !- Value Until Time 3
  4,                                      !- Hour 4
  0,                                      !- Minute 4
  0.731897810218978,                      !- Value Until Time 4
  5,                                      !- Hour 5
  0,                                      !- Minute 5
  0.712116788321168,                      !- Value Until Time 5
  6,                                      !- Hour 6
  0,                                      !- Minute 6
  0.712116788321168,                      !- Value Until Time 6
  7,                                      !- Hour 7
  0,                                      !- Minute 7
  0.751678832116788,                      !- Value Until Time 7
  8,                                      !- Hour 8
  0,                                      !- Minute 8
  0.791240875912409,                      !- Value Until Time 8
  9,                                      !- Hour 9
  0,                                      !- Minute 9
  0.811021897810219,                      !- Value Until Time 9
  10,                                     !- Hour 10
  0,                                      !- Minute 10
  0.811021897810219,                      !- Value Until Time 10
  11,                                     !- Hour 11
  0,                                      !- Minute 11
  0.791240875912409,                      !- Value Until Time 11
  12,                                     !- Hour 12
  0,                                      !- Minute 12
  0.791240875912409,                      !- Value Until Time 12
  13,                                     !- Hour 13
  0,                                      !- Minute 13
  0.830802919708029,                      !- Value Until Time 13
  14,                                     !- Hour 14
  0,                                      !- Minute 14
  0.830802919708029,                      !- Value Until Time 14
  15,                                     !- Hour 15
  0,                                      !- Minute 15
  0.830802919708029,                      !- Value Until Time 15
  16,                                     !- Hour 16
  0,                                      !- Minute 16
  0.811021897810219,                      !- Value Until Time 16
  17,                                     !- Hour 17
  0,                                      !- Minute 17
  0.87036496350365,                       !- Value Until Time 17
  18,                                     !- Hour 18
  0,                                      !- Minute 18
  0.94948905109489,                       !- Value Until Time 18
  19,                                     !- Hour 19
  0,                                      !- Minute 19
  0.989051094890511,                      !- Value Until Time 19
  20,                                     !- Hour 20
  0,                                      !- Minute 20
  0.94948905109489,                       !- Value Until Time 20
  21,                                     !- Hour 21
  0,                                      !- Minute 21
  0.92970802919708,                       !- Value Until Time 21
  22,                                     !- Hour 22
  0,                                      !- Minute 22
  0.90992700729927,                       !- Value Until Time 22
  23,                                     !- Hour 23
  0,                                      !- Minute 23
  0.87036496350365,                       !- Value Until Time 23
  24,                                     !- Hour 24
  0,                                      !- Minute 24
  0.811021897810219;                      !- Value Until Time 24

OS:Schedule:Rule,
  {a70609c4-b5ca-4bdf-a584-c7deaf663a41}, !- Handle
  fridge_weekend_ruleset3,                !- Name
  {5cd9c1b7-1da8-45ac-8f75-9aebd9e006ea}, !- Schedule Ruleset Name
  18,                                     !- Rule Order
  {ad01f61c-7802-4b50-9357-28dc8a694161}, !- Day Schedule Name
  Yes,                                    !- Apply Sunday
  No,                                     !- Apply Monday
  No,                                     !- Apply Tuesday
  No,                                     !- Apply Wednesday
  No,                                     !- Apply Thursday
  No,                                     !- Apply Friday
  Yes,                                    !- Apply Saturday
  ,                                       !- Apply Holiday
  DateRange,                              !- Date Specification Type
  3,                                      !- Start Month
  1,                                      !- Start Day
  3,                                      !- End Month
  31;                                     !- End Day

OS:Schedule:Day,
  {ad01f61c-7802-4b50-9357-28dc8a694161}, !- Handle