
OS:Version,
  {d860272c-9f63-45c1-a2f8-1339cd5c5f27}, !- Handle
  1.3.1;                                  !- Version Identifier

OS:Construction,
  {897e52e4-6a6a-4f34-9f47-ebea64dae6e6}, !- Handle
  ExtUninsUnfinWall,                      !- Name
  ,                                       !- Surface Rendering Name
  {e782a192-b2f6-49d5-81f7-febf5b71ab5c}, !- Layer 1
  {12949bd5-1dd2-4d2d-9de8-86e3feded74c}, !- Layer 2
  {656f9b9b-bd2d-49d3-8dda-0ee324e6e226}; !- Layer 3

OS:Material,
  {e782a192-b2f6-49d5-81f7-febf5b71ab5c}, !- Handle
  Exterior_Finish_Vinyl_Light,            !- Name
  Rough,                                  !- Roughness
  0.009525,                               !- Thickness {m}
  0.089435,                               !- Conductivity {W/m-K}
  177.822,                                !- Density {kg/m3}
  1046.75,                                !- Specific Heat {J/kg-K}
  0.9,                                    !- Thermal Absorptance
  0.3,                                    !- Solar Absorptance
  0.3;                                    !- Visible Absorptance

OS:Material,
  {12949bd5-1dd2-4d2d-9de8-86e3feded74c}, !- Handle
  Plywood_1_2in,                          !- Name
  Rough,                                  !- Roughness
  0.0127,                                 !- Thickness {m}
  0.1154577,                              !- Conductivity {W/m-K}
  512.64,                                 !- Density {kg/m3}
  1214.23;                                !- Specific Heat {J/kg-K}

OS:Material,
  {656f9b9b-bd2d-49d3-8dda-0ee324e6e226}, !- Handle
  StudandAirWall,                         !- Name
  Rough,                                  !- Roughness
  0.0889,                                 !- Thickness {m}
  0.442568232,                            !- Conductivity {W/m-K}
  49.1393091779855,                       !- Density {kg/m3}
  1209.63177954897;                       !- Specific Heat {J/kg-K}

