
OS:Version,
  {65d85939-3d8d-46d4-935e-7f06c6614b75}, !- Handle
  1.3.1;                                  !- Version Identifier

OS:Construction,
  {91f5fdf7-1d3c-4113-a0ca-2a9d35273301}, !- Handle
  CSRimJoist,                             !- Name
  ,                                       !- Surface Rendering Name
  {327e1544-1716-44a4-8a16-d7fe89f5403f}, !- Layer 1
  {2fbd0576-fe68-4d87-a1f9-1d6f76e2ff98}, !- Layer 2
  {f9e294ef-bbca-463f-9577-1a2eef7f6266}; !- Layer 3

OS:Material,
  {327e1544-1716-44a4-8a16-d7fe89f5403f}, !- Handle
  Exterior_Finish_Vinyl_Light,            !- Name
  Rough,                                  !- Roughness
  0.009525,                               !- Thickness {m}
  0.089435,                               !- Conductivity {W/m-K}
  177.822,                                !- Density {kg/m3}
  1046.75,                                !- Specific Heat {J/kg-K}
  0.9,                                    !- Thermal Absorptance
  0.3,                                    !- Solar Absorptance
  0.3;                                    !- Visible Absorptance

OS:Material,
  {2fbd0576-fe68-4d87-a1f9-1d6f76e2ff98}, !- Handle
  Plywood_3_2in,                          !- Name
  Rough,                                  !- Roughness
  0.0381,                                 !- Thickness {m}
  0.1154577,                              !- Conductivity {W/m-K}
  512.64,                                 !- Density {kg/m3}
  1214.23;                                !- Specific Heat {J/kg-K}

OS:Material,
  {f9e294ef-bbca-463f-9577-1a2eef7f6266}, !- Handle
  CSJoistandCavity,                       !- Name
  Rough,                                  !- Roughness
  0.23495,                                !- Thickness {m}
  0.0666024151242877,                     !- Conductivity {W/m-K}
  108.738954,                             !- Density {kg/m3}
  1149.39401785582;                       !- Specific Heat {J/kg-K}

