
OS:Version,
  {b3676c36-9a49-4046-aa03-0651214e2849}, !- Handle
  1.3.1;                                  !- Version Identifier

OS:Construction,
  {3b89d18c-953b-4490-97d7-850dda66a781}, !- Handle
  ExtInsFinWall,                          !- Name
  ,                                       !- Surface Rendering Name
  {1dfa5bda-6faf-4129-956d-2985638566e1}, !- Layer 1
  {b659fbab-c33e-4e96-992b-6adf4e5a44b0}, !- Layer 2
  {d01dfc72-edf8-40ee-ab15-f98caa2cf697}, !- Layer 3
  {d28f6434-e0a8-471d-a8f1-4236a24924b7}, !- Layer 4
  {056a5cd8-c758-4c0b-863a-7dec1bf3e8be}, !- Layer 5
  {59a8a6fb-024b-4e37-8552-9e4a9d1e6be9}; !- Layer 6

OS:Material,
  {1dfa5bda-6faf-4129-956d-2985638566e1}, !- Handle
  Exterior_Finish_Vinyl_Light,            !- Name
  Rough,                                  !- Roughness
  0.009525,                               !- Thickness {m}
  0.089435,                               !- Conductivity {W/m-K}
  177.822,                                !- Density {kg/m3}
  1046.75,                                !- Specific Heat {J/kg-K}
  0.9,                                    !- Thermal Absorptance
  0.3,                                    !- Solar Absorptance
  0.3;                                    !- Visible Absorptance

OS:Material,
  {b659fbab-c33e-4e96-992b-6adf4e5a44b0}, !- Handle
  Plywood_1_2in,                          !- Name
  Rough,                                  !- Roughness
  0.0127,                                 !- Thickness {m}
  0.1154577,                              !- Conductivity {W/m-K}
  512.64,                                 !- Density {kg/m3}
  1214.23;                                !- Specific Heat {J/kg-K}

OS:Material,
  {59a8a6fb-024b-4e37-8552-9e4a9d1e6be9}, !- Handle
  GypsumBoard_1_2in,                      !- Name
  Rough,                                  !- Roughness
  0.0127,                                 !- Thickness {m}
  0.1602906,                              !- Conductivity {W/m-K}
  801,                                    !- Density {kg/m3}
  837.4;                                  !- Specific Heat {J/kg-K}

OS:Material,
  {d01dfc72-edf8-40ee-ab15-f98caa2cf697}, !- Handle
  StudandCavity,                          !- Name
  Rough,                                  !- Roughness
  0.0889,                                 !- Thickness {m}
  0.0474350163340529,                     !- Conductivity {W/m-K}
  148.39326,                              !- Density {kg/m3}
  1174.03696966425;                       !- Specific Heat {J/kg-K}

OS:Material,
  {d28f6434-e0a8-471d-a8f1-4236a24924b7}, !- Handle
  Cavity,                                 !- Name
  Rough,                                  !- Roughness
  0.0889,                                 !- Thickness {m}
  0.0465417335833333,                     !- Conductivity {W/m-K}
  119.206822499999,                       !- Density {kg/m3}
  1160.18704077004;                       !- Specific Heat {J/kg-K}

OS:Material,
  {056a5cd8-c758-4c0b-863a-7dec1bf3e8be}, !- Handle
  StudandCavity 1,                        !- Name
  Rough,                                  !- Roughness
  0.0889,                                 !- Thickness {m}
  0.0474350163340529,                     !- Conductivity {W/m-K}
  148.39326,                              !- Density {kg/m3}
  1174.03696966425;                       !- Specific Heat {J/kg-K}

