!- NOTE: Auto-generated from /test/osw_files/SFD_2000sqft_2story_CS_UA_3Beds_2Baths_Denver_Furnace_CentralAC.osw

OS:Version,
  {59287a92-7ed4-42b7-bba4-3b07bb0440b9}, !- Handle
  1.14.0;                                  !- Version Identifier

OS:Building,
  {bf305633-c5a1-4881-9edf-ca5e1a8e1274}, !- Handle
  Building,                               !- Name
  ,                                       !- Building Sector Type
  ,                                       !- North Axis {deg}
  ,                                       !- Nominal Floor to Floor Height {m}
  ,                                       !- Space Type Name
  ,                                       !- Default Construction Set Name
  ,                                       !- Default Schedule Set Name
  2,                                      !- Standards Number of Stories
  2,                                      !- Standards Number of Above Ground Stories
  singlefamilydetached,                   !- Standards Building Type
  1;                                      !- Standards Number of Living Units

OS:YearDescription,
  {513d8dda-86cb-442a-b01c-1f7f0e0ac70e}; !- Handle

OS:SimulationControl,
  {2c487a4c-bac9-4ac5-b669-1e49d9da7c2b}, !- Handle
  ,                                       !- Do Zone Sizing Calculation
  ,                                       !- Do System Sizing Calculation
  ,                                       !- Do Plant Sizing Calculation
  No,                                     !- Run Simulation for Sizing Periods
  ;                                       !- Run Simulation for Weather File Run Periods

OS:Timestep,
  {4ebc9f1e-4707-402e-9844-67eb1ffbd522}, !- Handle
  6;                                      !- Number of Timesteps per Hour

OS:RunPeriod,
  {28df894d-6af9-4fb8-8f56-df1753344aa3}, !- Handle
  Run Period,                             !- Name
  1,                                      !- Begin Month
  1,                                      !- Begin Day of Month
  12,                                     !- End Month
  31,                                     !- End Day of Month
  ,                                       !- Use Weather File Holidays and Special Days
  ,                                       !- Use Weather File Daylight Saving Period
  ,                                       !- Apply Weekend Holiday Rule
  ,                                       !- Use Weather File Rain Indicators
  ,                                       !- Use Weather File Snow Indicators
  ;                                       !- Number of Times Runperiod to be Repeated

OS:Sizing:Parameters,
  {dde5af6f-7923-4600-a28a-7556673a0266}, !- Handle
  1.0,                                    !- Heating Sizing Factor
  1.0;                                    !- Cooling Sizing Factor

OS:ShadowCalculation,
  {ca758bea-4416-4626-9bba-3d8795c79bd6}, !- Handle
  20,                                     !- Calculation Frequency
  200;                                    !- Maximum Figures in Shadow Overlap Calculations

OS:SurfaceConvectionAlgorithm:Inside,
  {aaabfc36-718a-4ab0-b622-f186ebb45230}, !- Handle
  TARP;                                   !- Algorithm

OS:SurfaceConvectionAlgorithm:Outside,
  {9a0a9f6f-4bbd-4b12-a121-9492a1fcd7d6}, !- Handle
  DOE-2;                                  !- Algorithm

OS:HeatBalanceAlgorithm,
  {9d93e563-e1e0-46d7-9e39-d1c8aceb7212}, !- Handle
  ConductionTransferFunction,             !- Algorithm
  200;                                    !- Surface Temperature Upper Limit {C}

OS:ZoneCapacitanceMultiplier:ResearchSpecial,
  {6bfced16-b16f-47f6-8223-f7e267d75d19}, !- Handle
  ,                                       !- Temperature Capacity Multiplier
  15,                                     !- Humidity Capacity Multiplier
  ;                                       !- Carbon Dioxide Capacity Multiplier

OS:ThermalZone,
  {0569581e-5dbb-422b-a100-76f83dbd7661}, !- Handle
  living zone,                            !- Name
  ,                                       !- Multiplier
  ,                                       !- Ceiling Height {m}
  ,                                       !- Volume {m3}
  ,                                       !- Floor Area {m2}
  ,                                       !- Zone Inside Convection Algorithm
  ,                                       !- Zone Outside Convection Algorithm
  ,                                       !- Zone Conditioning Equipment List Name
  {6ff171c2-4dfc-446e-a79a-dd28ff7932a4}, !- Zone Air Inlet Port List
  {55622c83-6fad-4c46-afef-37ce72a7823c}, !- Zone Air Exhaust Port List
  {69966fe2-ee05-4780-b420-b450c328bd0f}, !- Zone Air Node Name
  {50130b2f-fd98-4685-82e3-216f28347ddf}, !- Zone Return Air Node Name
  ,                                       !- Primary Daylighting Control Name
  ,                                       !- Fraction of Zone Controlled by Primary Daylighting Control
  ,                                       !- Secondary Daylighting Control Name
  ,                                       !- Fraction of Zone Controlled by Secondary Daylighting Control
  ,                                       !- Illuminance Map Name
  ,                                       !- Group Rendering Name
  {c8a91aff-5377-4ee4-b379-2b4684bd9815}, !- Thermostat Name
  No;                                     !- Use Ideal Air Loads

OS:Node,
  {83ecd1ff-e858-4a06-8619-40a42d365a51}, !- Handle
  Node 1,                                 !- Name
  {69966fe2-ee05-4780-b420-b450c328bd0f}, !- Inlet Port
  ;                                       !- Outlet Port

OS:Connection,
  {69966fe2-ee05-4780-b420-b450c328bd0f}, !- Handle
  {399a509c-d5ee-4b79-9664-b7e3935c35d0}, !- Name
  {0569581e-5dbb-422b-a100-76f83dbd7661}, !- Source Object
  11,                                     !- Outlet Port
  {83ecd1ff-e858-4a06-8619-40a42d365a51}, !- Target Object
  2;                                      !- Inlet Port

OS:PortList,
  {6ff171c2-4dfc-446e-a79a-dd28ff7932a4}, !- Handle
  Port List 1,                            !- Name
  {0569581e-5dbb-422b-a100-76f83dbd7661}, !- HVAC Component
  {53c1572a-cd00-49a5-82fa-7991596ce593}; !- Port 1

OS:PortList,
  {55622c83-6fad-4c46-afef-37ce72a7823c}, !- Handle
  Port List 2,                            !- Name
  {0569581e-5dbb-422b-a100-76f83dbd7661}; !- HVAC Component

OS:Sizing:Zone,
  {d0b1afd4-0414-4fb1-bb7d-d77ac0e8c8d6}, !- Handle
  {0569581e-5dbb-422b-a100-76f83dbd7661}, !- Zone or ZoneList Name
  SupplyAirTemperature,                   !- Zone Cooling Design Supply Air Temperature Input Method
  14,                                     !- Zone Cooling Design Supply Air Temperature {C}
  11.11,                                  !- Zone Cooling Design Supply Air Temperature Difference {deltaC}
  SupplyAirTemperature,                   !- Zone Heating Design Supply Air Temperature Input Method
  40,                                     !- Zone Heating Design Supply Air Temperature {C}
  11.11,                                  !- Zone Heating Design Supply Air Temperature Difference {deltaC}
  0.0085,                                 !- Zone Cooling Design Supply Air Humidity Ratio {kg-H2O/kg-air}
  0.008,                                  !- Zone Heating Design Supply Air Humidity Ratio {kg-H2O/kg-air}
  ,                                       !- Zone Heating Sizing Factor
  ,                                       !- Zone Cooling Sizing Factor
  DesignDay,                              !- Cooling Design Air Flow Method
  ,                                       !- Cooling Design Air Flow Rate {m3/s}
  ,                                       !- Cooling Minimum Air Flow per Zone Floor Area {m3/s-m2}
  ,                                       !- Cooling Minimum Air Flow {m3/s}
  ,                                       !- Cooling Minimum Air Flow Fraction
  DesignDay,                              !- Heating Design Air Flow Method
  ,                                       !- Heating Design Air Flow Rate {m3/s}
  ,                                       !- Heating Maximum Air Flow per Zone Floor Area {m3/s-m2}
  ,                                       !- Heating Maximum Air Flow {m3/s}
  ,                                       !- Heating Maximum Air Flow Fraction
  ,                                       !- Design Zone Air Distribution Effectiveness in Cooling Mode
  ,                                       !- Design Zone Air Distribution Effectiveness in Heating Mode
  No,                                     !- Account for Dedicated Outdoor Air System
  NeutralSupplyAir,                       !- Dedicated Outdoor Air System Control Strategy
  autosize,                               !- Dedicated Outdoor Air Low Setpoint Temperature for Design {C}
  autosize;                               !- Dedicated Outdoor Air High Setpoint Temperature for Design {C}

OS:ZoneHVAC:EquipmentList,
  {5d9a6c77-b02e-4a6e-b322-81b4ffc41147}, !- Handle
  Zone HVAC Equipment List 1,             !- Name
  {0569581e-5dbb-422b-a100-76f83dbd7661}, !- Thermal Zone
  {39b2d86d-f6cf-4682-9e04-48996eeb3157}, !- Zone Equipment 1
  1,                                      !- Zone Equipment Cooling Sequence 1
  1;                                      !- Zone Equipment Heating or No-Load Sequence 1

OS:Space,
  {7defe8fc-6f1b-481a-b50e-dadcc5df2eaa}, !- Handle
  living space,                           !- Name
  ,                                       !- Space Type Name
  ,                                       !- Default Construction Set Name
  ,                                       !- Default Schedule Set Name
  -0,                                     !- Direction of Relative North {deg}
  0,                                      !- X Origin {m}
  0,                                      !- Y Origin {m}
  0,                                      !- Z Origin {m}
  ,                                       !- Building Story Name
  {0569581e-5dbb-422b-a100-76f83dbd7661}, !- Thermal Zone Name
  ,                                       !- Part of Total Floor Area
  ,                                       !- Design Specification Outdoor Air Object Name
  {902a873b-8f45-45fe-bda2-7690881de9c3}; !- Building Unit Name

OS:Surface,
  {f553adbe-d347-49c2-9aec-2d6e2fa8e814}, !- Handle
  Surface 1,                              !- Name
  Floor,                                  !- Surface Type
  ,                                       !- Construction Name
  {7defe8fc-6f1b-481a-b50e-dadcc5df2eaa}, !- Space Name
  Surface,                                !- Outside Boundary Condition
  {d9e6f6a5-ccc1-47f9-84ce-f3394ac6637c}, !- Outside Boundary Condition Object
  NoSun,                                  !- Sun Exposure
  NoWind,                                 !- Wind Exposure
  ,                                       !- View Factor to Ground
  ,                                       !- Number of Vertices
  0, 0, 0,                                !- X,Y,Z Vertex 1 {m}
  0, 6.81553519541936, 0,                 !- X,Y,Z Vertex 2 {m}
  13.6310703908387, 6.81553519541936, 0,  !- X,Y,Z Vertex 3 {m}
  13.6310703908387, 0, 0;                 !- X,Y,Z Vertex 4 {m}

OS:Surface,
  {f99de5f1-2a8f-4b8f-a564-507b8dd78c0f}, !- Handle
  Surface 2,                              !- Name
  Wall,                                   !- Surface Type
  ,                                       !- Construction Name
  {7defe8fc-6f1b-481a-b50e-dadcc5df2eaa}, !- Space Name
  Outdoors,                               !- Outside Boundary Condition
  ,                                       !- Outside Boundary Condition Object
  SunExposed,                             !- Sun Exposure
  WindExposed,                            !- Wind Exposure
  ,                                       !- View Factor to Ground
  ,                                       !- Number of Vertices
  0, 6.81553519541936, 2.4384,            !- X,Y,Z Vertex 1 {m}
  0, 6.81553519541936, 0,                 !- X,Y,Z Vertex 2 {m}
  0, 0, 0,                                !- X,Y,Z Vertex 3 {m}
  0, 0, 2.4384;                           !- X,Y,Z Vertex 4 {m}

OS:Surface,
  {9d626fff-ad35-4267-96c8-b051cc91970f}, !- Handle
  Surface 3,                              !- Name
  Wall,                                   !- Surface Type
  ,                                       !- Construction Name
  {7defe8fc-6f1b-481a-b50e-dadcc5df2eaa}, !- Space Name
  Outdoors,                               !- Outside Boundary Condition
  ,                                       !- Outside Boundary Condition Object
  SunExposed,                             !- Sun Exposure
  WindExposed,                            !- Wind Exposure
  ,                                       !- View Factor to Ground
  ,                                       !- Number of Vertices
  13.6310703908387, 6.81553519541936, 2.4384, !- X,Y,Z Vertex 1 {m}
  13.6310703908387, 6.81553519541936, 0,  !- X,Y,Z Vertex 2 {m}
  0, 6.81553519541936, 0,                 !- X,Y,Z Vertex 3 {m}
  0, 6.81553519541936, 2.4384;            !- X,Y,Z Vertex 4 {m}

OS:Surface,
  {21731219-f093-494e-b78f-6b0413316bf2}, !- Handle
  Surface 4,                              !- Name
  Wall,                                   !- Surface Type
  ,                                       !- Construction Name
  {7defe8fc-6f1b-481a-b50e-dadcc5df2eaa}, !- Space Name
  Outdoors,                               !- Outside Boundary Condition
  ,                                       !- Outside Boundary Condition Object
  SunExposed,                             !- Sun Exposure
  WindExposed,                            !- Wind Exposure
  ,                                       !- View Factor to Ground
  ,                                       !- Number of Vertices
  13.6310703908387, 0, 2.4384,            !- X,Y,Z Vertex 1 {m}
  13.6310703908387, 0, 0,                 !- X,Y,Z Vertex 2 {m}
  13.6310703908387, 6.81553519541936, 0,  !- X,Y,Z Vertex 3 {m}
  13.6310703908387, 6.81553519541936, 2.4384; !- X,Y,Z Vertex 4 {m}

OS:Surface,
  {b1c7e179-614c-4279-80a3-65bc7af0b17b}, !- Handle
  Surface 5,                              !- Name
  Wall,                                   !- Surface Type
  ,                                       !- Construction Name
  {7defe8fc-6f1b-481a-b50e-dadcc5df2eaa}, !- Space Name
  Outdoors,                               !- Outside Boundary Condition
  ,                                       !- Outside Boundary Condition Object
  SunExposed,                             !- Sun Exposure
  WindExposed,                            !- Wind Exposure
  ,                                       !- View Factor to Ground
  ,                                       !- Number of Vertices
  0, 0, 2.4384,                           !- X,Y,Z Vertex 1 {m}
  0, 0, 0,                                !- X,Y,Z Vertex 2 {m}
  13.6310703908387, 0, 0,                 !- X,Y,Z Vertex 3 {m}
  13.6310703908387, 0, 2.4384;            !- X,Y,Z Vertex 4 {m}

OS:Surface,
  {a8883ead-a513-4550-b2f7-35290007a380}, !- Handle
  Surface 6,                              !- Name
  RoofCeiling,                            !- Surface Type
  ,                                       !- Construction Name
  {7defe8fc-6f1b-481a-b50e-dadcc5df2eaa}, !- Space Name
  Surface,                                !- Outside Boundary Condition
  {a2e6d260-c781-46e0-b9df-70bc8e36b66b}, !- Outside Boundary Condition Object
  NoSun,                                  !- Sun Exposure
  NoWind,                                 !- Wind Exposure
  ,                                       !- View Factor to Ground
  ,                                       !- Number of Vertices
  13.6310703908387, 0, 2.4384,            !- X,Y,Z Vertex 1 {m}
  13.6310703908387, 6.81553519541936, 2.4384, !- X,Y,Z Vertex 2 {m}
  0, 6.81553519541936, 2.4384,            !- X,Y,Z Vertex 3 {m}
  0, 0, 2.4384;                           !- X,Y,Z Vertex 4 {m}

OS:Space,
  {432dd3c0-642c-406d-bbec-49e9dbc1db24}, !- Handle
  living space|story 2,                   !- Name
  ,                                       !- Space Type Name
  ,                                       !- Default Construction Set Name
  ,                                       !- Default Schedule Set Name
  -0,                                     !- Direction of Relative North {deg}
  0,                                      !- X Origin {m}
  0,                                      !- Y Origin {m}
  2.4384,                                 !- Z Origin {m}
  ,                                       !- Building Story Name
  {0569581e-5dbb-422b-a100-76f83dbd7661}, !- Thermal Zone Name
  ,                                       !- Part of Total Floor Area
  ,                                       !- Design Specification Outdoor Air Object Name
  {902a873b-8f45-45fe-bda2-7690881de9c3}; !- Building Unit Name

OS:Surface,
  {a2e6d260-c781-46e0-b9df-70bc8e36b66b}, !- Handle
  Surface 7,                              !- Name
  Floor,                                  !- Surface Type
  ,                                       !- Construction Name
  {432dd3c0-642c-406d-bbec-49e9dbc1db24}, !- Space Name
  Surface,                                !- Outside Boundary Condition
  {a8883ead-a513-4550-b2f7-35290007a380}, !- Outside Boundary Condition Object
  NoSun,                                  !- Sun Exposure
  NoWind,                                 !- Wind Exposure
  ,                                       !- View Factor to Ground
  ,                                       !- Number of Vertices
  0, 0, 0,                                !- X,Y,Z Vertex 1 {m}
  0, 6.81553519541936, 0,                 !- X,Y,Z Vertex 2 {m}
  13.6310703908387, 6.81553519541936, 0,  !- X,Y,Z Vertex 3 {m}
  13.6310703908387, 0, 0;                 !- X,Y,Z Vertex 4 {m}

OS:Surface,
  {059ae546-a158-4ffa-98a2-4e74722af9ff}, !- Handle
  Surface 8,                              !- Name
  Wall,                                   !- Surface Type
  ,                                       !- Construction Name
  {432dd3c0-642c-406d-bbec-49e9dbc1db24}, !- Space Name
  Outdoors,                               !- Outside Boundary Condition
  ,                                       !- Outside Boundary Condition Object
  SunExposed,                             !- Sun Exposure
  WindExposed,                            !- Wind Exposure
  ,                                       !- View Factor to Ground
  ,                                       !- Number of Vertices
  0, 6.81553519541936, 2.4384,            !- X,Y,Z Vertex 1 {m}
  0, 6.81553519541936, 0,                 !- X,Y,Z Vertex 2 {m}
  0, 0, 0,                                !- X,Y,Z Vertex 3 {m}
  0, 0, 2.4384;                           !- X,Y,Z Vertex 4 {m}

OS:Surface,
  {bf3d2193-17da-4904-a03f-939489db3e3c}, !- Handle
  Surface 9,                              !- Name
  Wall,                                   !- Surface Type
  ,                                       !- Construction Name
  {432dd3c0-642c-406d-bbec-49e9dbc1db24}, !- Space Name
  Outdoors,                               !- Outside Boundary Condition
  ,                                       !- Outside Boundary Condition Object
  SunExposed,                             !- Sun Exposure
  WindExposed,                            !- Wind Exposure
  ,                                       !- View Factor to Ground
  ,                                       !- Number of Vertices
  13.6310703908387, 6.81553519541936, 2.4384, !- X,Y,Z Vertex 1 {m}
  13.6310703908387, 6.81553519541936, 0,  !- X,Y,Z Vertex 2 {m}
  0, 6.81553519541936, 0,                 !- X,Y,Z Vertex 3 {m}
  0, 6.81553519541936, 2.4384;            !- X,Y,Z Vertex 4 {m}

OS:Surface,
  {33a803ef-1f86-4b45-b5af-49c25a7a28bd}, !- Handle
  Surface 10,                             !- Name
  Wall,                                   !- Surface Type
  ,                                       !- Construction Name
  {432dd3c0-642c-406d-bbec-49e9dbc1db24}, !- Space Name
  Outdoors,                               !- Outside Boundary Condition
  ,                                       !- Outside Boundary Condition Object
  SunExposed,                             !- Sun Exposure
  WindExposed,                            !- Wind Exposure
  ,                                       !- View Factor to Ground
  ,                                       !- Number of Vertices
  13.6310703908387, 0, 2.4384,            !- X,Y,Z Vertex 1 {m}
  13.6310703908387, 0, 0,                 !- X,Y,Z Vertex 2 {m}
  13.6310703908387, 6.81553519541936, 0,  !- X,Y,Z Vertex 3 {m}
  13.6310703908387, 6.81553519541936, 2.4384; !- X,Y,Z Vertex 4 {m}

OS:Surface,
  {3dd7de15-22f1-49ea-94e5-b5cd799c8e38}, !- Handle
  Surface 11,                             !- Name
  Wall,                                   !- Surface Type
  ,                                       !- Construction Name
  {432dd3c0-642c-406d-bbec-49e9dbc1db24}, !- Space Name
  Outdoors,                               !- Outside Boundary Condition
  ,                                       !- Outside Boundary Condition Object
  SunExposed,                             !- Sun Exposure
  WindExposed,                            !- Wind Exposure
  ,                                       !- View Factor to Ground
  ,                                       !- Number of Vertices
  0, 0, 2.4384,                           !- X,Y,Z Vertex 1 {m}
  0, 0, 0,                                !- X,Y,Z Vertex 2 {m}
  13.6310703908387, 0, 0,                 !- X,Y,Z Vertex 3 {m}
  13.6310703908387, 0, 2.4384;            !- X,Y,Z Vertex 4 {m}

OS:Surface,
  {a3864058-3c6e-42ca-b5a7-d9f0f8784fd8}, !- Handle
  Surface 12,                             !- Name
  RoofCeiling,                            !- Surface Type
  ,                                       !- Construction Name
  {432dd3c0-642c-406d-bbec-49e9dbc1db24}, !- Space Name
  Surface,                                !- Outside Boundary Condition
  {52a74c06-e120-4753-8550-6571943070d6}, !- Outside Boundary Condition Object
  NoSun,                                  !- Sun Exposure
  NoWind,                                 !- Wind Exposure
  ,                                       !- View Factor to Ground
  ,                                       !- Number of Vertices
  13.6310703908387, 0, 2.4384,            !- X,Y,Z Vertex 1 {m}
  13.6310703908387, 6.81553519541936, 2.4384, !- X,Y,Z Vertex 2 {m}
  0, 6.81553519541936, 2.4384,            !- X,Y,Z Vertex 3 {m}
  0, 0, 2.4384;                           !- X,Y,Z Vertex 4 {m}

OS:Surface,
  {52a74c06-e120-4753-8550-6571943070d6}, !- Handle
  Surface 13,                             !- Name
  Floor,                                  !- Surface Type
  ,                                       !- Construction Name
  {160daf9f-e45e-47ff-86ae-865280afe1e2}, !- Space Name
  Surface,                                !- Outside Boundary Condition
  {a3864058-3c6e-42ca-b5a7-d9f0f8784fd8}, !- Outside Boundary Condition Object
  NoSun,                                  !- Sun Exposure
  NoWind,                                 !- Wind Exposure
  ,                                       !- View Factor to Ground
  ,                                       !- Number of Vertices
  0, 6.81553519541936, 0,                 !- X,Y,Z Vertex 1 {m}
  13.6310703908387, 6.81553519541936, 0,  !- X,Y,Z Vertex 2 {m}
  13.6310703908387, 0, 0,                 !- X,Y,Z Vertex 3 {m}
  0, 0, 0;                                !- X,Y,Z Vertex 4 {m}

OS:Surface,
  {c9dff32e-1f5d-4d96-866e-bb0f24f0fc8f}, !- Handle
  Surface 14,                             !- Name
  RoofCeiling,                            !- Surface Type
  ,                                       !- Construction Name
  {160daf9f-e45e-47ff-86ae-865280afe1e2}, !- Space Name
  Outdoors,                               !- Outside Boundary Condition
  ,                                       !- Outside Boundary Condition Object
  SunExposed,                             !- Sun Exposure
  WindExposed,                            !- Wind Exposure
  ,                                       !- View Factor to Ground
  ,                                       !- Number of Vertices
  13.6310703908387, 3.40776759770968, 1.70388379885484, !- X,Y,Z Vertex 1 {m}
  0, 3.40776759770968, 1.70388379885484,  !- X,Y,Z Vertex 2 {m}
  0, 0, 0,                                !- X,Y,Z Vertex 3 {m}
  13.6310703908387, 0, 0;                 !- X,Y,Z Vertex 4 {m}

OS:Surface,
  {fb8e9b98-13fb-4e4d-8681-32458690813d}, !- Handle
  Surface 15,                             !- Name
  RoofCeiling,                            !- Surface Type
  ,                                       !- Construction Name
  {160daf9f-e45e-47ff-86ae-865280afe1e2}, !- Space Name
  Outdoors,                               !- Outside Boundary Condition
  ,                                       !- Outside Boundary Condition Object
  SunExposed,                             !- Sun Exposure
  WindExposed,                            !- Wind Exposure
  ,                                       !- View Factor to Ground
  ,                                       !- Number of Vertices
  0, 3.40776759770968, 1.70388379885484,  !- X,Y,Z Vertex 1 {m}
  13.6310703908387, 3.40776759770968, 1.70388379885484, !- X,Y,Z Vertex 2 {m}
  13.6310703908387, 6.81553519541936, 0,  !- X,Y,Z Vertex 3 {m}
  0, 6.81553519541936, 0;                 !- X,Y,Z Vertex 4 {m}

OS:Surface,
  {474daef0-f147-435b-80a5-d1bcf2c209f6}, !- Handle
  Surface 16,                             !- Name
  Wall,                                   !- Surface Type
  ,                                       !- Construction Name
  {160daf9f-e45e-47ff-86ae-865280afe1e2}, !- Space Name
  Outdoors,                               !- Outside Boundary Condition
  ,                                       !- Outside Boundary Condition Object
  SunExposed,                             !- Sun Exposure
  WindExposed,                            !- Wind Exposure
  ,                                       !- View Factor to Ground
  ,                                       !- Number of Vertices
  0, 3.40776759770968, 1.70388379885484,  !- X,Y,Z Vertex 1 {m}
  0, 6.81553519541936, 0,                 !- X,Y,Z Vertex 2 {m}
  0, 0, 0;                                !- X,Y,Z Vertex 3 {m}

OS:Surface,
  {17720dbd-3e24-4cc4-805d-58eaa863436d}, !- Handle
  Surface 17,                             !- Name
  Wall,                                   !- Surface Type
  ,                                       !- Construction Name
  {160daf9f-e45e-47ff-86ae-865280afe1e2}, !- Space Name
  Outdoors,                               !- Outside Boundary Condition
  ,                                       !- Outside Boundary Condition Object
  SunExposed,                             !- Sun Exposure
  WindExposed,                            !- Wind Exposure
  ,                                       !- View Factor to Ground
  ,                                       !- Number of Vertices
  13.6310703908387, 3.40776759770968, 1.70388379885484, !- X,Y,Z Vertex 1 {m}
  13.6310703908387, 0, 0,                 !- X,Y,Z Vertex 2 {m}
  13.6310703908387, 6.81553519541936, 0;  !- X,Y,Z Vertex 3 {m}

OS:Space,
  {160daf9f-e45e-47ff-86ae-865280afe1e2}, !- Handle
  unfinished attic space,                 !- Name
  ,                                       !- Space Type Name
  ,                                       !- Default Construction Set Name
  ,                                       !- Default Schedule Set Name
  -0,                                     !- Direction of Relative North {deg}
  0,                                      !- X Origin {m}
  0,                                      !- Y Origin {m}
  4.8768,                                 !- Z Origin {m}
  ,                                       !- Building Story Name
  {c1ac04b4-49ce-44b5-97bc-052443e33d8f}, !- Thermal Zone Name
  ,                                       !- Part of Total Floor Area
  ,                                       !- Design Specification Outdoor Air Object Name
  {902a873b-8f45-45fe-bda2-7690881de9c3}; !- Building Unit Name

OS:ThermalZone,
  {c1ac04b4-49ce-44b5-97bc-052443e33d8f}, !- Handle
  unfinished attic zone,                  !- Name
  ,                                       !- Multiplier
  ,                                       !- Ceiling Height {m}
  ,                                       !- Volume {m3}
  ,                                       !- Floor Area {m2}
  ,                                       !- Zone Inside Convection Algorithm
  ,                                       !- Zone Outside Convection Algorithm
  ,                                       !- Zone Conditioning Equipment List Name
  {709f24e0-2a79-494f-a4da-56e212da445a}, !- Zone Air Inlet Port List
  {4b326452-13ca-49f5-911a-e20e63f0f5c9}, !- Zone Air Exhaust Port List
  {1da554ea-b9fe-48f0-a8da-2cf1494deeca}, !- Zone Air Node Name
  ,                                       !- Zone Return Air Node Name
  ,                                       !- Primary Daylighting Control Name
  ,                                       !- Fraction of Zone Controlled by Primary Daylighting Control
  ,                                       !- Secondary Daylighting Control Name
  ,                                       !- Fraction of Zone Controlled by Secondary Daylighting Control
  ,                                       !- Illuminance Map Name
  ,                                       !- Group Rendering Name
  ,                                       !- Thermostat Name
  No;                                     !- Use Ideal Air Loads

OS:Node,
  {bf908435-149a-47eb-8eb2-b6ad57f541eb}, !- Handle
  Node 2,                                 !- Name
  {1da554ea-b9fe-48f0-a8da-2cf1494deeca}, !- Inlet Port
  ;                                       !- Outlet Port

OS:Connection,
  {1da554ea-b9fe-48f0-a8da-2cf1494deeca}, !- Handle
  {82ba045b-82ba-4085-bd99-02f0247bf45b}, !- Name