!- NOTE: Auto-generated from /test/osw_files/SFD_2000sqft_2story_SL_GRG_FR_3Beds_2Baths_Denver_Furnace_CentralAC.osw

OS:Version,
  {2489b072-f820-4376-93ff-45ba948430ec}, !- Handle
  2.0.4;                                  !- Version Identifier

OS:Building,
  {bf305633-c5a1-4881-9edf-ca5e1a8e1274}, !- Handle
  Building,                               !- Name
  ,                                       !- Building Sector Type
  ,                                       !- North Axis {deg}
  ,                                       !- Nominal Floor to Floor Height {m}
  ,                                       !- Space Type Name
  ,                                       !- Default Construction Set Name
  ,                                       !- Default Schedule Set Name
  2,                                      !- Standards Number of Stories
  2,                                      !- Standards Number of Above Ground Stories
  singlefamilydetached,                   !- Standards Building Type
  1;                                      !- Standards Number of Living Units

OS:YearDescription,
  {513d8dda-86cb-442a-b01c-1f7f0e0ac70e}; !- Handle

OS:SimulationControl,
  {2c487a4c-bac9-4ac5-b669-1e49d9da7c2b}, !- Handle
  ,                                       !- Do Zone Sizing Calculation
  ,                                       !- Do System Sizing Calculation
  ,                                       !- Do Plant Sizing Calculation
  No,                                     !- Run Simulation for Sizing Periods
  ;                                       !- Run Simulation for Weather File Run Periods

OS:Timestep,
  {4ebc9f1e-4707-402e-9844-67eb1ffbd522}, !- Handle
  6;                                      !- Number of Timesteps per Hour

OS:RunPeriod,
  {28df894d-6af9-4fb8-8f56-df1753344aa3}, !- Handle
  Run Period,                             !- Name
  1,                                      !- Begin Month
  1,                                      !- Begin Day of Month
  12,                                     !- End Month
  31,                                     !- End Day of Month
  ,                                       !- Use Weather File Holidays and Special Days
  ,                                       !- Use Weather File Daylight Saving Period
  ,                                       !- Apply Weekend Holiday Rule
  ,                                       !- Use Weather File Rain Indicators
  ,                                       !- Use Weather File Snow Indicators
  ;                                       !- Number of Times Runperiod to be Repeated

OS:Sizing:Parameters,
  {dde5af6f-7923-4600-a28a-7556673a0266}, !- Handle
  1.0,                                    !- Heating Sizing Factor
  1.0;                                    !- Cooling Sizing Factor

OS:ShadowCalculation,
  {ca758bea-4416-4626-9bba-3d8795c79bd6}, !- Handle
  20,                                     !- Calculation Frequency
  200;                                    !- Maximum Figures in Shadow Overlap Calculations

OS:SurfaceConvectionAlgorithm:Inside,
  {aaabfc36-718a-4ab0-b622-f186ebb45230}, !- Handle
  TARP;                                   !- Algorithm

OS:SurfaceConvectionAlgorithm:Outside,
  {9a0a9f6f-4bbd-4b12-a121-9492a1fcd7d6}, !- Handle
  DOE-2;                                  !- Algorithm

OS:HeatBalanceAlgorithm,
  {9d93e563-e1e0-46d7-9e39-d1c8aceb7212}, !- Handle
  ConductionTransferFunction,             !- Algorithm
  200;                                    !- Surface Temperature Upper Limit {C}

OS:ZoneCapacitanceMultiplier:ResearchSpecial,
  {6bfced16-b16f-47f6-8223-f7e267d75d19}, !- Handle
  ,                                       !- Temperature Capacity Multiplier
  15,                                     !- Humidity Capacity Multiplier
  ;                                       !- Carbon Dioxide Capacity Multiplier

OS:ThermalZone,
  {b03ca8da-8908-4d74-9a1d-27c28b1edc01}, !- Handle
  living zone,                            !- Name
  ,                                       !- Multiplier
  ,                                       !- Ceiling Height {m}
  ,                                       !- Volume {m3}
  ,                                       !- Floor Area {m2}
  ,                                       !- Zone Inside Convection Algorithm
  ,                                       !- Zone Outside Convection Algorithm
  ,                                       !- Zone Conditioning Equipment List Name
  {ea36410a-1e65-48f4-a9b4-77622f2f66ab}, !- Zone Air Inlet Port List
  {ce1149a9-2453-4607-bb4c-3a66f2e5be64}, !- Zone Air Exhaust Port List
  {c72320a6-814d-40f7-a0a8-977331c8f64c}, !- Zone Air Node Name
  {e51e8340-9bdd-4dca-81b7-894eac167a34}, !- Zone Return Air Node Name
  ,                                       !- Primary Daylighting Control Name
  ,                                       !- Fraction of Zone Controlled by Primary Daylighting Control
  ,                                       !- Secondary Daylighting Control Name
  ,                                       !- Fraction of Zone Controlled by Secondary Daylighting Control
  ,                                       !- Illuminance Map Name
  ,                                       !- Group Rendering Name
  {b1812f03-a810-420e-97d3-880745aa3829}, !- Thermostat Name
  No;                                     !- Use Ideal Air Loads

OS:Node,
  {4647a4bf-13b4-424e-b352-8f7a22deb1ee}, !- Handle
  Node 1,                                 !- Name
  {c72320a6-814d-40f7-a0a8-977331c8f64c}, !- Inlet Port
  ;                                       !- Outlet Port

OS:Connection,
  {c72320a6-814d-40f7-a0a8-977331c8f64c}, !- Handle
  {47d12303-a9d2-4737-9615-988e10883e87}, !- Name
  {b03ca8da-8908-4d74-9a1d-27c28b1edc01}, !- Source Object
  11,                                     !- Outlet Port
  {4647a4bf-13b4-424e-b352-8f7a22deb1ee}, !- Target Object
  2;                                      !- Inlet Port

OS:PortList,
  {ea36410a-1e65-48f4-a9b4-77622f2f66ab}, !- Handle
  Port List 1,                            !- Name
  {b03ca8da-8908-4d74-9a1d-27c28b1edc01}, !- HVAC Component
  {7f37a186-ded2-4224-bed0-f0d829247534}; !- Port 1

OS:PortList,
  {ce1149a9-2453-4607-bb4c-3a66f2e5be64}, !- Handle
  Port List 2,                            !- Name
  {b03ca8da-8908-4d74-9a1d-27c28b1edc01}; !- HVAC Component

OS:Sizing:Zone,
  {38796b6a-9014-4a08-bde2-123e1eb268d4}, !- Handle
  {b03ca8da-8908-4d74-9a1d-27c28b1edc01}, !- Zone or ZoneList Name
  SupplyAirTemperature,                   !- Zone Cooling Design Supply Air Temperature Input Method
  14,                                     !- Zone Cooling Design Supply Air Temperature {C}
  11.11,                                  !- Zone Cooling Design Supply Air Temperature Difference {deltaC}
  SupplyAirTemperature,                   !- Zone Heating Design Supply Air Temperature Input Method
  40,                                     !- Zone Heating Design Supply Air Temperature {C}
  11.11,                                  !- Zone Heating Design Supply Air Temperature Difference {deltaC}
  0.0085,                                 !- Zone Cooling Design Supply Air Humidity Ratio {kg-H2O/kg-air}
  0.008,                                  !- Zone Heating Design Supply Air Humidity Ratio {kg-H2O/kg-air}
  ,                                       !- Zone Heating Sizing Factor
  ,                                       !- Zone Cooling Sizing Factor
  DesignDay,                              !- Cooling Design Air Flow Method
  ,                                       !- Cooling Design Air Flow Rate {m3/s}
  ,                                       !- Cooling Minimum Air Flow per Zone Floor Area {m3/s-m2}
  ,                                       !- Cooling Minimum Air Flow {m3/s}
  ,                                       !- Cooling Minimum Air Flow Fraction
  DesignDay,                              !- Heating Design Air Flow Method
  ,                                       !- Heating Design Air Flow Rate {m3/s}
  ,                                       !- Heating Maximum Air Flow per Zone Floor Area {m3/s-m2}
  ,                                       !- Heating Maximum Air Flow {m3/s}
  ,                                       !- Heating Maximum Air Flow Fraction
  ,                                       !- Design Zone Air Distribution Effectiveness in Cooling Mode
  ,                                       !- Design Zone Air Distribution Effectiveness in Heating Mode
  No,                                     !- Account for Dedicated Outdoor Air System
  NeutralSupplyAir,                       !- Dedicated Outdoor Air System Control Strategy
  autosize,                               !- Dedicated Outdoor Air Low Setpoint Temperature for Design {C}
  autosize;                               !- Dedicated Outdoor Air High Setpoint Temperature for Design {C}

OS:ZoneHVAC:EquipmentList,
  {529e31ce-483c-41ec-8a58-740d303033e9}, !- Handle
  Zone HVAC Equipment List 1,             !- Name
  {b03ca8da-8908-4d74-9a1d-27c28b1edc01}, !- Thermal Zone
  {92e914d3-b843-4766-9710-3a5ccbdeec8c}, !- Zone Equipment 1
  1,                                      !- Zone Equipment Cooling Sequence 1
  1;                                      !- Zone Equipment Heating or No-Load Sequence 1

OS:ThermalZone,
  {660294be-df25-442e-b77a-30f72d551179}, !- Handle
  garage zone,                            !- Name
  ,                                       !- Multiplier
  ,                                       !- Ceiling Height {m}
  ,                                       !- Volume {m3}
  ,                                       !- Floor Area {m2}
  ,                                       !- Zone Inside Convection Algorithm
  ,                                       !- Zone Outside Convection Algorithm
  ,                                       !- Zone Conditioning Equipment List Name
  {61144fa0-38e2-4daf-b153-0ca7456a6828}, !- Zone Air Inlet Port List
  {2bc2c547-a166-4b6a-8719-78ae6db40f74}, !- Zone Air Exhaust Port List
  {5f0f4660-a859-484e-9abb-e787a6de6bef}, !- Zone Air Node Name
  ,                                       !- Zone Return Air Node Name
  ,                                       !- Primary Daylighting Control Name
  ,                                       !- Fraction of Zone Controlled by Primary Daylighting Control
  ,                                       !- Secondary Daylighting Control Name
  ,                                       !- Fraction of Zone Controlled by Secondary Daylighting Control
  ,                                       !- Illuminance Map Name
  ,                                       !- Group Rendering Name
  ,                                       !- Thermostat Name
  No;                                     !- Use Ideal Air Loads

OS:Node,
  {57cbe85a-e97d-4af9-ad17-bd50efb7c434}, !- Handle
  Node 2,                                 !- Name
  {5f0f4660-a859-484e-9abb-e787a6de6bef}, !- Inlet Port
  ;                                       !- Outlet Port

OS:Connection,
  {5f0f4660-a859-484e-9abb-e787a6de6bef}, !- Handle
  {db860cae-4f82-41d5-a4f6-20a90776c84f}, !- Name
  {660294be-df25-442e-b77a-30f72d551179}, !- Source Object
  11,                                     !- Outlet Port
  {57cbe85a-e97d-4af9-ad17-bd50efb7c434}, !- Target Object
  2;                                      !- Inlet Port

OS:PortList,
  {61144fa0-38e2-4daf-b153-0ca7456a6828}, !- Handle
  Port List 3,                            !- Name
  {660294be-df25-442e-b77a-30f72d551179}; !- HVAC Component

OS:PortList,
  {2bc2c547-a166-4b6a-8719-78ae6db40f74}, !- Handle
  Port List 4,                            !- Name
  {660294be-df25-442e-b77a-30f72d551179}; !- HVAC Component

OS:Sizing:Zone,
  {0b278257-abd6-4195-9719-49ca3a93661e}, !- Handle
  {660294be-df25-442e-b77a-30f72d551179}, !- Zone or ZoneList Name
  SupplyAirTemperature,                   !- Zone Cooling Design Supply Air Temperature Input Method
  14,                                     !- Zone Cooling Design Supply Air Temperature {C}
  11.11,                                  !- Zone Cooling Design Supply Air Temperature Difference {deltaC}
  SupplyAirTemperature,                   !- Zone Heating Design Supply Air Temperature Input Method
  40,                                     !- Zone Heating Design Supply Air Temperature {C}
  11.11,                                  !- Zone Heating Design Supply Air Temperature Difference {deltaC}
  0.0085,                                 !- Zone Cooling Design Supply Air Humidity Ratio {kg-H2O/kg-air}
  0.008,                                  !- Zone Heating Design Supply Air Humidity Ratio {kg-H2O/kg-air}
  ,                                       !- Zone Heating Sizing Factor
  ,                                       !- Zone Cooling Sizing Factor
  DesignDay,                              !- Cooling Design Air Flow Method
  ,                                       !- Cooling Design Air Flow Rate {m3/s}
  ,                                       !- Cooling Minimum Air Flow per Zone Floor Area {m3/s-m2}
  ,                                       !- Cooling Minimum Air Flow {m3/s}
  ,                                       !- Cooling Minimum Air Flow Fraction
  DesignDay,                              !- Heating Design Air Flow Method
  ,                                       !- Heating Design Air Flow Rate {m3/s}
  ,                                       !- Heating Maximum Air Flow per Zone Floor Area {m3/s-m2}
  ,                                       !- Heating Maximum Air Flow {m3/s}
  ,                                       !- Heating Maximum Air Flow Fraction
  ,                                       !- Design Zone Air Distribution Effectiveness in Cooling Mode
  ,                                       !- Design Zone Air Distribution Effectiveness in Heating Mode
  No,                                     !- Account for Dedicated Outdoor Air System
  NeutralSupplyAir,                       !- Dedicated Outdoor Air System Control Strategy
  autosize,                               !- Dedicated Outdoor Air Low Setpoint Temperature for Design {C}
  autosize;                               !- Dedicated Outdoor Air High Setpoint Temperature for Design {C}

OS:ZoneHVAC:EquipmentList,
  {823cc578-cd27-4b93-a53a-14d1b8cb6352}, !- Handle
  Zone HVAC Equipment List 2,             !- Name
  {660294be-df25-442e-b77a-30f72d551179}; !- Thermal Zone

OS:Space,
  {ca7de8bd-d610-4d9e-b11f-f59552ce7a15}, !- Handle
  garage space,                           !- Name
  ,                                       !- Space Type Name
  ,                                       !- Default Construction Set Name
  ,                                       !- Default Schedule Set Name
  -0,                                     !- Direction of Relative North {deg}
  0,                                      !- X Origin {m}
  0,                                      !- Y Origin {m}
  0,                                      !- Z Origin {m}
  ,                                       !- Building Story Name
  {660294be-df25-442e-b77a-30f72d551179}, !- Thermal Zone Name
  ,                                       !- Part of Total Floor Area
  ,                                       !- Design Specification Outdoor Air Object Name
  {aa0fe5d5-6a0a-4211-aace-3a974d2f3ef7}; !- Building Unit Name

OS:Surface,
  {aff5e32a-6a17-43dd-b7da-ea882baf36eb}, !- Handle
  Surface 1,                              !- Name
  Floor,                                  !- Surface Type
  ,                                       !- Construction Name
  {ca7de8bd-d610-4d9e-b11f-f59552ce7a15}, !- Space Name
  Ground,                                 !- Outside Boundary Condition
  ,                                       !- Outside Boundary Condition Object
  NoSun,                                  !- Sun Exposure
  NoWind,                                 !- Wind Exposure
  ,                                       !- View Factor to Ground
  ,                                       !- Number of Vertices
  10.7681689431101, 0, 0,                 !- X,Y,Z Vertex 1 {m}
  10.7681689431101, 6.096, 0,             !- X,Y,Z Vertex 2 {m}
  14.4257689431101, 6.096, 0,             !- X,Y,Z Vertex 3 {m}
  14.4257689431101, 0, 0;                 !- X,Y,Z Vertex 4 {m}

OS:Surface,
  {2a792c26-3727-4f9d-b0ac-d127ba592e8a}, !- Handle
  Surface 2,                              !- Name
  Wall,                                   !- Surface Type
  ,                                       !- Construction Name
  {ca7de8bd-d610-4d9e-b11f-f59552ce7a15}, !- Space Name
  Surface,                                !- Outside Boundary Condition
  {f7328594-e53d-44b1-934c-f52f5b505920}, !- Outside Boundary Condition Object
  NoSun,                                  !- Sun Exposure
  NoWind,                                 !- Wind Exposure
  ,                                       !- View Factor to Ground
  ,                                       !- Number of Vertices
  10.7681689431101, 6.096, 2.4384,        !- X,Y,Z Vertex 1 {m}
  10.7681689431101, 6.096, 0,             !- X,Y,Z Vertex 2 {m}
  10.7681689431101, 0, 0,                 !- X,Y,Z Vertex 3 {m}
  10.7681689431101, 0, 2.4384;            !- X,Y,Z Vertex 4 {m}

OS:Surface,
  {bfd5340f-99b2-4672-829c-5b259caf0d85}, !- Handle
  Surface 3,                              !- Name
  Wall,                                   !- Surface Type
  ,                                       !- Construction Name
  {ca7de8bd-d610-4d9e-b11f-f59552ce7a15}, !- Space Name
  Surface,                                !- Outside Boundary Condition
  {0d30a8f3-a9fa-44c0-b6cd-14c9b620274c}, !- Outside Boundary Condition Object
  NoSun,                                  !- Sun Exposure
  NoWind,                                 !- Wind Exposure
  ,                                       !- View Factor to Ground
  ,                                       !- Number of Vertices
  14.4257689431101, 6.096, 2.4384,        !- X,Y,Z Vertex 1 {m}
  14.4257689431101, 6.096, 0,             !- X,Y,Z Vertex 2 {m}
  10.7681689431101, 6.096, 0,             !- X,Y,Z Vertex 3 {m}
  10.7681689431101, 6.096, 2.4384;        !- X,Y,Z Vertex 4 {m}

OS:Surface,
  {819c12de-4972-4f45-b965-a110d26d9422}, !- Handle
  Surface 4,                              !- Name
  Wall,                                   !- Surface Type
  ,                                       !- Construction Name
  {ca7de8bd-d610-4d9e-b11f-f59552ce7a15}, !- Space Name
  Outdoors,                               !- Outside Boundary Condition
  ,                                       !- Outside Boundary Condition Object
  SunExposed,                             !- Sun Exposure
  WindExposed,                            !- Wind Exposure
  ,                                       !- View Factor to Ground
  ,                                       !- Number of Vertices
  14.4257689431101, 0, 2.4384,            !- X,Y,Z Vertex 1 {m}
  14.4257689431101, 0, 0,                 !- X,Y,Z Vertex 2 {m}
  14.4257689431101, 6.096, 0,             !- X,Y,Z Vertex 3 {m}
  14.4257689431101, 6.096, 2.4384;        !- X,Y,Z Vertex 4 {m}

OS:Surface,
  {b264f9d4-fac1-4eff-80e0-20a61b234c81}, !- Handle
  Surface 5,                              !- Name
  Wall,                                   !- Surface Type
  ,                                       !- Construction Name
  {ca7de8bd-d610-4d9e-b11f-f59552ce7a15}, !- Space Name
  Outdoors,                               !- Outside Boundary Condition
  ,                                       !- Outside Boundary Condition Object
  SunExposed,                             !- Sun Exposure
  WindExposed,                            !- Wind Exposure
  ,                                       !- View Factor to Ground
  ,                                       !- Number of Vertices
  10.7681689431101, 0, 2.4384,            !- X,Y,Z Vertex 1 {m}
  10.7681689431101, 0, 0,                 !- X,Y,Z Vertex 2 {m}
  14.4257689431101, 0, 0,                 !- X,Y,Z Vertex 3 {m}
  14.4257689431101, 0, 2.4384;            !- X,Y,Z Vertex 4 {m}

OS:Surface,
  {f69394d5-962b-49be-b77c-f7443892bb93}, !- Handle
  Surface 6,                              !- Name
  RoofCeiling,                            !- Surface Type
  ,                                       !- Construction Name
  {ca7de8bd-d610-4d9e-b11f-f59552ce7a15}, !- Space Name
  Surface,                                !- Outside Boundary Condition
  {42469a01-652d-437d-9b01-a9a77c40fa2c}, !- Outside Boundary Condition Object
  NoSun,                                  !- Sun Exposure
  NoWind,                                 !- Wind Exposure
  ,                                       !- View Factor to Ground
  ,                                       !- Number of Vertices
  14.4257689431101, 0, 2.4384,            !- X,Y,Z Vertex 1 {m}
  14.4257689431101, 6.096, 2.4384,        !- X,Y,Z Vertex 2 {m}
  10.7681689431101, 6.096, 2.4384,        !- X,Y,Z Vertex 3 {m}
  10.7681689431101, 0, 2.4384;            !- X,Y,Z Vertex 4 {m}

OS:Space,
  {155726ae-625f-4ac5-8e6a-42dc565b3b92}, !- Handle
  living space,                           !- Name
  ,                                       !- Space Type Name
  ,                                       !- Default Construction Set Name
  ,                                       !- Default Schedule Set Name
  -0,                                     !- Direction of Relative North {deg}
  0,                                      !- X Origin {m}
  0,                                      !- Y Origin {m}
  0,                                      !- Z Origin {m}
  ,                                       !- Building Story Name
  {b03ca8da-8908-4d74-9a1d-27c28b1edc01}, !- Thermal Zone Name
  ,                                       !- Part of Total Floor Area
  ,                                       !- Design Specification Outdoor Air Object Name
  {aa0fe5d5-6a0a-4211-aace-3a974d2f3ef7}; !- Building Unit Name

OS:Surface,
  {1caaa228-3b50-4c39-ab0c-30cbae6d1251}, !- Handle
  Surface 7,                              !- Name
  Floor,                                  !- Surface Type
  ,                                       !- Construction Name
  {155726ae-625f-4ac5-8e6a-42dc565b3b92}, !- Space Name
  Ground,                                 !- Outside Boundary Condition
  ,                                       !- Outside Boundary Condition Object
  NoSun,                                  !- Sun Exposure
  NoWind,                                 !- Wind Exposure
  ,                                       !- View Factor to Ground
  ,                                       !- Number of Vertices
  0, 0, 0,                                !- X,Y,Z Vertex 1 {m}
  0, 7.21288447155505, 0,                 !- X,Y,Z Vertex 2 {m}
  14.4257689431101, 7.21288447155505, 0,  !- X,Y,Z Vertex 3 {m}
  14.4257689431101, 6.096, 0,             !- X,Y,Z Vertex 4 {m}
  10.7681689431101, 6.096, 0,             !- X,Y,Z Vertex 5 {m}
  10.7681689431101, 0, 0;                 !- X,Y,Z Vertex 6 {m}

OS:Surface,
  {125ad7fd-deaa-4ebd-ad41-e9729c976a69}, !- Handle
  Surface 8,                              !- Name
  Wall,                                   !- Surface Type
  ,                                       !- Construction Name
  {155726ae-625f-4ac5-8e6a-42dc565b3b92}, !- Space Name
  Outdoors,                               !- Outside Boundary Condition
  ,                                       !- Outside Boundary Condition Object
  SunExposed,                             !- Sun Exposure
  WindExposed,                            !- Wind Exposure
  ,                                       !- View Factor to Ground
  ,                                       !- Number of Vertices
  0, 7.21288447155505, 2.4384,            !- X,Y,Z Vertex 1 {m}
  0, 7.21288447155505, 0,                 !- X,Y,Z Vertex 2 {m}
  0, 0, 0,                                !- X,Y,Z Vertex 3 {m}
  0, 0, 2.4384;                           !- X,Y,Z Vertex 4 {m}

OS:Surface,
  {5bc7fc44-537f-471a-afd0-aa43ef23b2ab}, !- Handle
  Surface 9,                              !- Name
  Wall,                                   !- Surface Type
  ,                                       !- Construction Name
  {155726ae-625f-4ac5-8e6a-42dc565b3b92}, !- Space Name
  Outdoors,                               !- Outside Boundary Condition
  ,                                       !- Outside Boundary Condition Object
  SunExposed,                             !- Sun Exposure
  WindExposed,                            !- Wind Exposure
  ,                                       !- View Factor to Ground
  ,                                       !- Number of Vertices
  14.4257689431101, 7.21288447155505, 2.4384, !- X,Y,Z Vertex 1 {m}
  14.4257689431101, 7.21288447155505, 0,  !- X,Y,Z Vertex 2 {m}
  0, 7.21288447155505, 0,                 !- X,Y,Z Vertex 3 {m}
  0, 7.21288447155505, 2.4384;            !- X,Y,Z Vertex 4 {m}

OS:Surface,
  {f7ca9735-314c-48e3-931b-4ab742160aba}, !- Handle
  Surface 10,                             !- Name
  Wall,                                   !- Surface Type
  ,                                       !- Construction Name
  {155726ae-625f-4ac5-8e6a-42dc565b3b92}, !- Space Name
  Outdoors,                               !- Outside Boundary Condition
  ,                                       !- Outside Boundary Condition Object
  SunExposed,                             !- Sun Exposure
  WindExposed,                            !- Wind Exposure
  ,                                       !- View Factor to Ground
  ,                                       !- Number of Vertices
  14.4257689431101, 6.096, 2.4384,        !- X,Y,Z Vertex 1 {m}
  14.4257689431101, 6.096, 0,             !- X,Y,Z Vertex 2 {m}
  14.4257689431101, 7.21288447155505, 0,  !- X,Y,Z Vertex 3 {m}
  14.4257689431101, 7.21288447155505, 2.4384; !- X,Y,Z Vertex 4 {m}

OS:Surface,
  {0d30a8f3-a9fa-44c0-b6cd-14c9b620274c}, !- Handle
  Surface 11,                             !- Name
  Wall,                                   !- Surface Type
  ,                                       !- Construction Name
  {155726ae-625f-4ac5-8e6a-42dc565b3b92}, !- Space Name
  Surface,                                !- Outside Boundary Condition
  {bfd5340f-99b2-4672-829c-5b259caf0d85}, !- Outside Boundary Condition Object
  NoSun,                                  !- Sun Exposure
  NoWind,                                 !- Wind Exposure
  ,                                       !- View Factor to Ground
  ,                                       !- Number of Vertices
  10.7681689431101, 6.096, 2.4384,        !- X,Y,Z Vertex 1 {m}
  10.7681689431101, 6.096, 0,             !- X,Y,Z Vertex 2 {m}
  14.4257689431101, 6.096, 0,             !- X,Y,Z Vertex 3 {m}
  14.4257689431101, 6.096, 2.4384;        !- X,Y,Z Vertex 4 {m}

OS:Surface,
  {f7328594-e53d-44b1-934c-f52f5b505920}, !- Handle
  Surface 12,                             !- Name
  Wall,                                   !- Surface Type
  ,                                       !- Construction Name
  {155726ae-625f-4ac5-8e6a-42dc565b3b92}, !- Space Name
  Surface,                                !- Outside Boundary Condition
  {2a792c26-3727-4f9d-b0ac-d127ba592e8a}, !- Outside Boundary Condition Object
  NoSun,                                  !- Sun Exposure
  NoWind,                                 !- Wind Exposure
  ,                                       !- View Factor to Ground
  ,                                       !- Number of Vertices
  10.7681689431101, 0, 2.4384,            !- X,Y,Z Vertex 1 {m}
  10.7681689431101, 0, 0,                 !- X,Y,Z Vertex 2 {m}
  10.7681689431101, 6.096, 0,             !- X,Y,Z Vertex 3 {m}
  10.7681689431101, 6.096, 2.4384;        !- X,Y,Z Vertex 4 {m}

OS:Surface,
  {5a198396-b747-4d11-b378-50b5334e53e4}, !- Handle
  Surface 13,                             !- Name
  Wall,                                   !- Surface Type
  ,                                       !- Construction Name
  {155726ae-625f-4ac5-8e6a-42dc565b3b92}, !- Space Name
  Outdoors,                               !- Outside Boundary Condition
  ,                                       !- Outside Boundary Condition Object
  SunExposed,                             !- Sun Exposure
  WindExposed,                            !- Wind Exposure
  ,                                       !- View Factor to Ground
  ,                                       !- Number of Vertices
  0, 0, 2.4384,                           !- X,Y,Z Vertex 1 {m}
  0, 0, 0,                                !- X,Y,Z Vertex 2 {m}
  10.7681689431101, 0, 0,                 !- X,Y,Z Vertex 3 {m}
  10.7681689431101, 0, 2.4384;            !- X,Y,Z Vertex 4 {m}

OS:Surface,
  {196b0c8d-b873-4097-8f38-aa46e0c8cec8}, !- Handle
  Surface 14,                             !- Name
  RoofCeiling,                            !- Surface Type
  ,                                       !- Construction Name
  {155726ae-625f-4ac5-8e6a-42dc565b3b92}, !- Space Name
  Surface,                                !- Outside Boundary Condition
  {7ed65e0d-3022-477d-b6e1-e86adc706f8d}, !- Outside Boundary Condition Object
  NoSun,                                  !- Sun Exposure
  NoWind,                                 !- Wind Exposure
  ,                                       !- View Factor to Ground
  ,                                       !- Number of Vertices
  10.7681689431101, 0, 2.4384,            !- X,Y,Z Vertex 1 {m}
  10.7681689431101, 6.096, 2.4384,        !- X,Y,Z Vertex 2 {m}
  14.4257689431101, 6.096, 2.4384,        !- X,Y,Z Vertex 3 {m}
  14.4257689431101, 7.21288447155505, 2.4384, !- X,Y,Z Vertex 4 {m}
  0, 7.21288447155505, 2.4384,            !- X,Y,Z Vertex 5 {m}
  0, 0, 2.4384;                           !- X,Y,Z Vertex 6 {m}

OS:Space,
  {38ae25e8-8107-4dce-9819-44c5d25eb164}, !- Handle
  living space|story 2,                   !- Name
  ,                                       !- Space Type Name