
OS:Version,
  {d2bf0103-45d0-4060-8492-b0d81d15308f}, !- Handle
  1.13.1;                                 !- Version Identifier

OS:Building,
  {bf305633-c5a1-4881-9edf-ca5e1a8e1274}, !- Handle
  Building,                               !- Name
  ,                                       !- Building Sector Type
  ,                                       !- North Axis {deg}
  ,                                       !- Nominal Floor to Floor Height {m}
  ,                                       !- Space Type Name
  ,                                       !- Default Construction Set Name
  ,                                       !- Default Schedule Set Name
  ,                                       !- Standards Number of Stories
  ,                                       !- Standards Number of Above Ground Stories
  ,                                       !- Standards Building Type
  1;                                      !- Standards Number of Living Units

OS:SimulationControl,
  {2c487a4c-bac9-4ac5-b669-1e49d9da7c2b}, !- Handle
  ,                                       !- Do Zone Sizing Calculation
  ,                                       !- Do System Sizing Calculation
  ,                                       !- Do Plant Sizing Calculation
  No,                                     !- Run Simulation for Sizing Periods
  ;                                       !- Run Simulation for Weather File Run Periods

OS:Timestep,
  {4ebc9f1e-4707-402e-9844-67eb1ffbd522}, !- Handle
  6;                                      !- Number of Timesteps per Hour

OS:RunPeriod,
  {28df894d-6af9-4fb8-8f56-df1753344aa3}, !- Handle
  Run Period,                             !- Name
  1,                                      !- Begin Month
  1,                                      !- Begin Day of Month
  12,                                     !- End Month
  31,                                     !- End Day of Month
  ,                                       !- Use Weather File Holidays and Special Days
  ,                                       !- Use Weather File Daylight Saving Period
  ,                                       !- Apply Weekend Holiday Rule
  ,                                       !- Use Weather File Rain Indicators
  ,                                       !- Use Weather File Snow Indicators
  ;                                       !- Number of Times Runperiod to be Repeated

OS:Sizing:Parameters,
  {dde5af6f-7923-4600-a28a-7556673a0266}, !- Handle
  1.0,                                    !- Heating Sizing Factor
  1.0;                                    !- Cooling Sizing Factor

OS:ShadowCalculation,
  {ca758bea-4416-4626-9bba-3d8795c79bd6}, !- Handle
  20,                                     !- Calculation Frequency
  200;                                    !- Maximum Figures in Shadow Overlap Calculations

OS:SurfaceConvectionAlgorithm:Inside,
  {aaabfc36-718a-4ab0-b622-f186ebb45230}, !- Handle
  TARP;                                   !- Algorithm

OS:SurfaceConvectionAlgorithm:Outside,
  {9a0a9f6f-4bbd-4b12-a121-9492a1fcd7d6}, !- Handle
  DOE-2;                                  !- Algorithm

OS:HeatBalanceAlgorithm,
  {9d93e563-e1e0-46d7-9e39-d1c8aceb7212}, !- Handle
  ConductionTransferFunction,             !- Algorithm
  200;                                    !- Surface Temperature Upper Limit {C}

OS:ZoneCapacitanceMultiplier:ResearchSpecial,
  {6bfced16-b16f-47f6-8223-f7e267d75d19}, !- Handle
  ,                                       !- Temperature Capacity Multiplier
  15,                                     !- Humidity Capacity Multiplier
  ;                                       !- Carbon Dioxide Capacity Multiplier

OS:Site,
  {d704c138-7ecd-4dbd-8ed9-2050a6deb265}, !- Handle
  Denver Intl Ap_CO_USA,                  !- Name
  39.83,                                  !- Latitude {deg}
  -104.65,                                !- Longitude {deg}
  -7,                                     !- Time Zone {hr}
  1650,                                   !- Elevation {m}
  ;                                       !- Terrain

OS:WeatherFile,
  {3b59cffc-a7b5-42e2-a734-5f2c36fcdd61}, !- Handle
  Denver Intl Ap,                         !- City
  CO,                                     !- State Province Region
  USA,                                    !- Country
  TMY3,                                   !- Data Source
  725650,                                 !- WMO Number
  39.83,                                  !- Latitude {deg}
  -104.65,                                !- Longitude {deg}
  -7,                                     !- Time Zone {hr}
  1650,                                   !- Elevation {m}
  file:../tests/USA_CO_Denver_Intl_AP_725650_TMY3.epw, !- Url
  E23378AA;                               !- Checksum

OS:ClimateZones,
  {16d3b313-b8c3-40de-a57d-0bcec12ede7d}, !- Handle
  ,                                       !- Active Institution
  ,                                       !- Active Year
  ,                                       !- Climate Zone Institution Name 1
  ,                                       !- Climate Zone Document Name 1
  ,                                       !- Climate Zone Document Year 1
  ,                                       !- Climate Zone Value 1
  Building America,                       !- Climate Zone Institution Name 2
  ,                                       !- Climate Zone Document Name 2
  0,                                      !- Climate Zone Document Year 2
  Cold;                                   !- Climate Zone Value 2

OS:SizingPeriod:DesignDay,
  {3a82dc62-ceee-4e00-bc76-9b92721e2fa4}, !- Handle
  Denver Intl Ap Ann Htg 99.6% Condns DB, !- Name
  -17.4,                                  !- Maximum Dry-Bulb Temperature {C}
  0,                                      !- Daily Dry-Bulb Temperature Range {deltaC}
  -17.4,                                  !- Humidity Indicating Conditions at Maximum Dry-Bulb
  83011,                                  !- Barometric Pressure {Pa}
  3.3,                                    !- Wind Speed {m/s}
  160,                                    !- Wind Direction {deg}
  0,                                      !- Sky Clearness
  0,                                      !- Rain Indicator
  0,                                      !- Snow Indicator
  21,                                     !- Day of Month
  12,                                     !- Month
  WinterDesignDay,                        !- Day Type
  0,                                      !- Daylight Saving Time Indicator
  Wetbulb,                                !- Humidity Indicating Type
  ,                                       !- Humidity Indicating Day Schedule Name
  DefaultMultipliers,                     !- Dry-Bulb Temperature Range Modifier Type
  ,                                       !- Dry-Bulb Temperature Range Modifier Schedule Name
  ASHRAEClearSky;                         !- Solar Model Indicator

OS:SizingPeriod:DesignDay,
  {19a71237-209c-4551-95f7-aa74553ee2fa}, !- Handle
  Denver Intl Ap Ann Clg .4% Condns DB=>MWB, !- Name
  34.6,                                   !- Maximum Dry-Bulb Temperature {C}
  15.2,                                   !- Daily Dry-Bulb Temperature Range {deltaC}
  15.7,                                   !- Humidity Indicating Conditions at Maximum Dry-Bulb
  83011,                                  !- Barometric Pressure {Pa}
  4.2,                                    !- Wind Speed {m/s}
  80,                                     !- Wind Direction {deg}
  0,                                      !- Sky Clearness
  0,                                      !- Rain Indicator
  0,                                      !- Snow Indicator
  21,                                     !- Day of Month
  7,                                      !- Month
  SummerDesignDay,                        !- Day Type
  0,                                      !- Daylight Saving Time Indicator
  Wetbulb,                                !- Humidity Indicating Type
  ,                                       !- Humidity Indicating Day Schedule Name
  DefaultMultipliers,                     !- Dry-Bulb Temperature Range Modifier Type
  ,                                       !- Dry-Bulb Temperature Range Modifier Schedule Name
  ASHRAETau,                              !- Solar Model Indicator
  ,                                       !- Beam Solar Day Schedule Name
  ,                                       !- Diffuse Solar Day Schedule Name
  0.424,                                  !- ASHRAE Taub {dimensionless}
  2.012;                                  !- ASHRAE Taud {dimensionless}

OS:SizingPeriod:DesignDay,
  {e6035fc3-4951-4247-aa5e-ed23020b0968}, !- Handle
  Denver Intl Ap Ann Clg .4% Condns WB=>MDB, !- Name
  27.3,                                   !- Maximum Dry-Bulb Temperature {C}
  15.2,                                   !- Daily Dry-Bulb Temperature Range {deltaC}
  18.3,                                   !- Humidity Indicating Conditions at Maximum Dry-Bulb
  83011,                                  !- Barometric Pressure {Pa}
  4.2,                                    !- Wind Speed {m/s}
  80,                                     !- Wind Direction {deg}
  0,                                      !- Sky Clearness
  0,                                      !- Rain Indicator
  0,                                      !- Snow Indicator
  21,                                     !- Day of Month
  7,                                      !- Month
  SummerDesignDay,                        !- Day Type
  0,                                      !- Daylight Saving Time Indicator
  Wetbulb,                                !- Humidity Indicating Type
  ,                                       !- Humidity Indicating Day Schedule Name
  DefaultMultipliers,                     !- Dry-Bulb Temperature Range Modifier Type
  ,                                       !- Dry-Bulb Temperature Range Modifier Schedule Name
  ASHRAETau,                              !- Solar Model Indicator
  ,                                       !- Beam Solar Day Schedule Name
  ,                                       !- Diffuse Solar Day Schedule Name
  0.424,                                  !- ASHRAE Taub {dimensionless}
  2.012;                                  !- ASHRAE Taud {dimensionless}

OS:Site:WaterMainsTemperature,
  {80834a76-1b4f-4866-8230-f4232838244a}, !- Handle
  Correlation,                            !- Calculation Method
  ,                                       !- Temperature Schedule Name
  10.8753424657535,                       !- Annual Average Outdoor Air Temperature {C}
  23.1524007936508;                       !- Maximum Difference In Monthly Average Outdoor Air Temperatures {deltaC}

OS:RunPeriodControl:DaylightSavingTime,
  {1073a964-e501-46f7-aae8-024826e9156d}, !- Handle
  4/7,                                    !- Start Date
  10/26;                                  !- End Date

OS:YearDescription,
  {57267c1c-654a-4672-af84-e47dc7ce409d}; !- Handle

OS:Site:GroundTemperature:BuildingSurface,
  {601431b9-f59f-4b2f-bc26-4a5b70348c62}, !- Handle
  6.71220717182217,                       !- January Ground Temperature {C}
  4.94160315792055,                       !- February Ground Temperature {C}
  4.79814094732353,                       !- March Ground Temperature {C}
  5.63626323951138,                       !- April Ground Temperature {C}
  9.00496422788996,                       !- May Ground Temperature {C}
  12.3607918495591,                       !- June Ground Temperature {C}
  15.2732325604715,                       !- July Ground Temperature {C}
  17.1228426206644,                       !- August Ground Temperature {C}
  17.2883239591317,                       !- September Ground Temperature {C}
  15.7978912711895,                       !- October Ground Temperature {C}
  12.9685430093462,                       !- November Ground Temperature {C}
  9.71587840323366;                       !- December Ground Temperature {C}

OS:Site:GroundTemperature:Deep,
  {d1fa3e40-7530-4902-99b9-ac81292dcc80}, !- Handle
  10.8753424657535,                       !- January Deep Ground Temperature {C}
  10.8753424657535,                       !- February Deep Ground Temperature {C}
  10.8753424657535,                       !- March Deep Ground Temperature {C}
  10.8753424657535,                       !- April Deep Ground Temperature {C}
  10.8753424657535,                       !- May Deep Ground Temperature {C}
  10.8753424657535,                       !- June Deep Ground Temperature {C}
  10.8753424657535,                       !- July Deep Ground Temperature {C}
  10.8753424657535,                       !- August Deep Ground Temperature {C}
  10.8753424657535,                       !- September Deep Ground Temperature {C}
  10.8753424657535,                       !- October Deep Ground Temperature {C}
  10.8753424657535,                       !- November Deep Ground Temperature {C}
  10.8753424657535;                       !- December Deep Ground Temperature {C}

OS:ThermalZone,
  {ae6ea8c7-c7ad-4398-abd1-82e4a882e8e2}, !- Handle
  living zone,                            !- Name
  ,                                       !- Multiplier
  ,                                       !- Ceiling Height {m}
  ,                                       !- Volume {m3}
  ,                                       !- Floor Area {m2}
  ,                                       !- Zone Inside Convection Algorithm
  ,                                       !- Zone Outside Convection Algorithm
  ,                                       !- Zone Conditioning Equipment List Name
  {cd9f8885-515d-4711-98a8-b51d24456bc2}, !- Zone Air Inlet Port List
  {52628d60-c31c-4631-b4ca-f8a011f8e1d9}, !- Zone Air Exhaust Port List
  {059f8cc8-d847-4176-9619-811079e7b0ce}, !- Zone Air Node Name
  ,                                       !- Zone Return Air Node Name
  ,                                       !- Primary Daylighting Control Name
  ,                                       !- Fraction of Zone Controlled by Primary Daylighting Control
  ,                                       !- Secondary Daylighting Control Name
  ,                                       !- Fraction of Zone Controlled by Secondary Daylighting Control
  ,                                       !- Illuminance Map Name
  ,                                       !- Group Rendering Name
  {cd76039e-d714-4bd3-92ef-b1b19f0f27db}, !- Thermostat Name
  No;                                     !- Use Ideal Air Loads

OS:Node,
  {edd540c5-d0b6-466e-9d85-9fe033ca1190}, !- Handle
  Node 1,                                 !- Name
  {059f8cc8-d847-4176-9619-811079e7b0ce}, !- Inlet Port
  ;                                       !- Outlet Port

OS:Connection,
  {059f8cc8-d847-4176-9619-811079e7b0ce}, !- Handle
  {2453f833-8307-4aa0-9e41-712b30c64302}, !- Name
  {ae6ea8c7-c7ad-4398-abd1-82e4a882e8e2}, !- Source Object
  11,                                     !- Outlet Port
  {edd540c5-d0b6-466e-9d85-9fe033ca1190}, !- Target Object
  2;                                      !- Inlet Port

OS:PortList,
  {cd9f8885-515d-4711-98a8-b51d24456bc2}, !- Handle
  Port List 1,                            !- Name
  {ae6ea8c7-c7ad-4398-abd1-82e4a882e8e2}; !- HVAC Component

OS:PortList,
  {52628d60-c31c-4631-b4ca-f8a011f8e1d9}, !- Handle
  Port List 2,                            !- Name
  {ae6ea8c7-c7ad-4398-abd1-82e4a882e8e2}; !- HVAC Component

OS:Sizing:Zone,
  {ad0da7b2-bf14-4b00-9633-50456ef996a1}, !- Handle
  {ae6ea8c7-c7ad-4398-abd1-82e4a882e8e2}, !- Zone or ZoneList Name
  SupplyAirTemperature,                   !- Zone Cooling Design Supply Air Temperature Input Method
  14,                                     !- Zone Cooling Design Supply Air Temperature {C}
  11.11,                                  !- Zone Cooling Design Supply Air Temperature Difference {deltaC}
  SupplyAirTemperature,                   !- Zone Heating Design Supply Air Temperature Input Method
  40,                                     !- Zone Heating Design Supply Air Temperature {C}
  11.11,                                  !- Zone Heating Design Supply Air Temperature Difference {deltaC}
  0.0085,                                 !- Zone Cooling Design Supply Air Humidity Ratio {kg-H2O/kg-air}
  0.008,                                  !- Zone Heating Design Supply Air Humidity Ratio {kg-H2O/kg-air}
  ,                                       !- Zone Heating Sizing Factor
  ,                                       !- Zone Cooling Sizing Factor
  DesignDay,                              !- Cooling Design Air Flow Method
  ,                                       !- Cooling Design Air Flow Rate {m3/s}
  ,                                       !- Cooling Minimum Air Flow per Zone Floor Area {m3/s-m2}
  ,                                       !- Cooling Minimum Air Flow {m3/s}
  ,                                       !- Cooling Minimum Air Flow Fraction
  DesignDay,                              !- Heating Design Air Flow Method
  ,                                       !- Heating Design Air Flow Rate {m3/s}
  ,                                       !- Heating Maximum Air Flow per Zone Floor Area {m3/s-m2}
  ,                                       !- Heating Maximum Air Flow {m3/s}
  ,                                       !- Heating Maximum Air Flow Fraction
  ,                                       !- Design Zone Air Distribution Effectiveness in Cooling Mode
  ,                                       !- Design Zone Air Distribution Effectiveness in Heating Mode
  No,                                     !- Account for Dedicated Outdoor Air System
  NeutralSupplyAir,                       !- Dedicated Outdoor Air System Control Strategy
  autosize,                               !- Dedicated Outdoor Air Low Setpoint Temperature for Design {C}
  autosize;                               !- Dedicated Outdoor Air High Setpoint Temperature for Design {C}

OS:ZoneHVAC:EquipmentList,
  {5e953795-7c79-4690-ba86-d201650c015c}, !- Handle
  Zone HVAC Equipment List 1,             !- Name
  {ae6ea8c7-c7ad-4398-abd1-82e4a882e8e2}, !- Thermal Zone
  {8a690021-9820-4b68-ba14-4c6a50f71c59}, !- Zone Equipment 1
  1,                                      !- Zone Equipment Cooling Sequence 1
  1;                                      !- Zone Equipment Heating or No-Load Sequence 1

OS:Space,
  {f898a5fe-6729-4ca9-a4d8-1e5a42527219}, !- Handle
  living space,                           !- Name
  ,                                       !- Space Type Name
  ,                                       !- Default Construction Set Name
  ,                                       !- Default Schedule Set Name
  -0,                                     !- Direction of Relative North {deg}
  0,                                      !- X Origin {m}
  0,                                      !- Y Origin {m}
  0,                                      !- Z Origin {m}
  ,                                       !- Building Story Name
  {ae6ea8c7-c7ad-4398-abd1-82e4a882e8e2}; !- Thermal Zone Name

OS:Surface,
  {f266088d-7471-4dd6-9cdd-b4eee9d9418c}, !- Handle
  Surface 1,                              !- Name
  Floor,                                  !- Surface Type
  ,                                       !- Construction Name
  {f898a5fe-6729-4ca9-a4d8-1e5a42527219}, !- Space Name
  Ground,                                 !- Outside Boundary Condition
  ,                                       !- Outside Boundary Condition Object
  NoSun,                                  !- Sun Exposure
  NoWind,                                 !- Wind Exposure
  ,                                       !- View Factor to Ground
  ,                                       !- Number of Vertices
  0, 0, 0,                                !- X,Y,Z Vertex 1 {m}
  0, 6.81553519541936, 0,                 !- X,Y,Z Vertex 2 {m}
  13.6310703908387, 6.81553519541936, 0,  !- X,Y,Z Vertex 3 {m}
  13.6310703908387, 0, 0;                 !- X,Y,Z Vertex 4 {m}

OS:Surface,
  {83480596-6af3-4ace-aae5-bd5b83a85458}, !- Handle
  Surface 2,                              !- Name
  Wall,                                   !- Surface Type
  ,                                       !- Construction Name
  {f898a5fe-6729-4ca9-a4d8-1e5a42527219}, !- Space Name
  Outdoors,                               !- Outside Boundary Condition
  ,                                       !- Outside Boundary Condition Object
  SunExposed,                             !- Sun Exposure
  WindExposed,                            !- Wind Exposure
  ,                                       !- View Factor to Ground
  ,                                       !- Number of Vertices
  0, 6.81553519541936, 2.4384,            !- X,Y,Z Vertex 1 {m}
  0, 6.81553519541936, 0,                 !- X,Y,Z Vertex 2 {m}
  0, 0, 0,                                !- X,Y,Z Vertex 3 {m}
  0, 0, 2.4384;                           !- X,Y,Z Vertex 4 {m}

OS:Surface,
  {f607e907-df46-4e93-96e9-13dd0928e07f}, !- Handle
  Surface 3,                              !- Name
  Wall,                                   !- Surface Type
  ,                                       !- Construction Name
  {f898a5fe-6729-4ca9-a4d8-1e5a42527219}, !- Space Name
  Outdoors,                               !- Outside Boundary Condition
  ,                                       !- Outside Boundary Condition Object
  SunExposed,                             !- Sun Exposure
  WindExposed,                            !- Wind Exposure
  ,                                       !- View Factor to Ground
  ,                                       !- Number of Vertices
  13.6310703908387, 6.81553519541936, 2.4384, !- X,Y,Z Vertex 1 {m}
  13.6310703908387, 6.81553519541936, 0,  !- X,Y,Z Vertex 2 {m}
  0, 6.81553519541936, 0,                 !- X,Y,Z Vertex 3 {m}
  0, 6.81553519541936, 2.4384;            !- X,Y,Z Vertex 4 {m}

OS:Surface,
  {92bbccef-3927-445d-922d-466cbaf2e9d1}, !- Handle
  Surface 4,                              !- Name
  Wall,                                   !- Surface Type
  ,                                       !- Construction Name
  {f898a5fe-6729-4ca9-a4d8-1e5a42527219}, !- Space Name
  Outdoors,                               !- Outside Boundary Condition
  ,                                       !- Outside Boundary Condition Object
  SunExposed,                             !- Sun Exposure
  WindExposed,                            !- Wind Exposure
  ,                                       !- View Factor to Ground
  ,                                       !- Number of Vertices
  13.6310703908387, 0, 2.4384,            !- X,Y,Z Vertex 1 {m}
  13.6310703908387, 0, 0,                 !- X,Y,Z Vertex 2 {m}
  13.6310703908387, 6.81553519541936, 0,  !- X,Y,Z Vertex 3 {m}
  13.6310703908387, 6.81553519541936, 2.4384; !- X,Y,Z Vertex 4 {m}

OS:Surface,
  {1c5af1f7-16ac-498f-ab65-4a82f30ded25}, !- Handle
  Surface 5,                              !- Name
  Wall,                                   !- Surface Type
  ,                                       !- Construction Name
  {f898a5fe-6729-4ca9-a4d8-1e5a42527219}, !- Space Name
  Outdoors,                               !- Outside Boundary Condition
  ,                                       !- Outside Boundary Condition Object
  SunExposed,                             !- Sun Exposure
  WindExposed,                            !- Wind Exposure
  ,                                       !- View Factor to Ground
  ,                                       !- Number of Vertices
  0, 0, 2.4384,                           !- X,Y,Z Vertex 1 {m}
  0, 0, 0,                                !- X,Y,Z Vertex 2 {m}
  13.6310703908387, 0, 0,                 !- X,Y,Z Vertex 3 {m}
  13.6310703908387, 0, 2.4384;            !- X,Y,Z Vertex 4 {m}

OS:Surface,
  {bbb237c4-1a5e-4888-9906-078b81309555}, !- Handle
  Surface 6,                              !- Name
  RoofCeiling,                            !- Surface Type
  ,                                       !- Construction Name
  {f898a5fe-6729-4ca9-a4d8-1e5a42527219}, !- Space Name
  Surface,                                !- Outside Boundary Condition
  {c6912ff0-71e2-47b4-aa4c-0d0d66b2b0eb}, !- Outside Boundary Condition Object
  NoSun,                                  !- Sun Exposure
  NoWind,                                 !- Wind Exposure
  ,                                       !- View Factor to Ground
  ,                                       !- Number of Vertices
  13.6310703908387, 0, 2.4384,            !- X,Y,Z Vertex 1 {m}
  13.6310703908387, 6.81553519541936, 2.4384, !- X,Y,Z Vertex 2 {m}
  0, 6.81553519541936, 2.4384,            !- X,Y,Z Vertex 3 {m}
  0, 0, 2.4384;                           !- X,Y,Z Vertex 4 {m}

OS:Space,
  {40ddfb16-0770-45cd-8d7b-7a1d440543ea}, !- Handle
  living space|story 2,                   !- Name
  ,                                       !- Space Type Name
  ,                                       !- Default Construction Set Name
  ,                                       !- Default Schedule Set Name
  -0,                                     !- Direction of Relative North {deg}
  0,                                      !- X Origin {m}
  0,                                      !- Y Origin {m}
  2.4384,                                 !- Z Origin {m}
  ,                                       !- Building Story Name
  {ae6ea8c7-c7ad-4398-abd1-82e4a882e8e2}; !- Thermal Zone Name

OS:Surface,
  {c6912ff0-71e2-47b4-aa4c-0d0d66b2b0eb}, !- Handle
  Surface 7,                              !- Name
  Floor,                                  !- Surface Type
  ,                                       !- Construction Name
  {40ddfb16-0770-45cd-8d7b-7a1d440543ea}, !- Space Name
  Surface,                                !- Outside Boundary Condition
  {bbb237c4-1a5e-4888-9906-078b81309555}, !- Outside Boundary Condition Object
  NoSun,                                  !- Sun Exposure
  NoWind,                                 !- Wind Exposure
  ,                                       !- View Factor to Ground
  ,                                       !- Number of Vertices
  0, 0, 0,                                !- X,Y,Z Vertex 1 {m}
  0, 6.81553519541936, 0,                 !- X,Y,Z Vertex 2 {m}
  13.6310703908387, 6.81553519541936, 0,  !- X,Y,Z Vertex 3 {m}
  13.6310703908387, 0, 0;                 !- X,Y,Z Vertex 4 {m}

OS:Surface,
  {db33eb70-5b89-4a1f-a81a-4c720d824a07}, !- Handle
  Surface 8,                              !- Name
  Wall,                                   !- Surface Type
  ,                                       !- Construction Name
  {40ddfb16-0770-45cd-8d7b-7a1d440543ea}, !- Space Name
  Outdoors,                               !- Outside Boundary Condition
  ,                                       !- Outside Boundary Condition Object
  SunExposed,                             !- Sun Exposure
  WindExposed,                            !- Wind Exposure
  ,                                       !- View Factor to Ground
  ,                                       !- Number of Vertices
  0, 6.81553519541936, 2.4384,            !- X,Y,Z Vertex 1 {m}
  0, 6.81553519541936, 0,                 !- X,Y,Z Vertex 2 {m}
  0, 0, 0,                                !- X,Y,Z Vertex 3 {m}
  0, 0, 2.4384;                           !- X,Y,Z Vertex 4 {m}

OS:Surface,
  {b2f58890-aa09-460e-bf91-d3fe9cfd8e8e}, !- Handle
  Surface 9,                              !- Name
  Wall,                                   !- Surface Type
  ,                                       !- Construction Name
  {40ddfb16-0770-45cd-8d7b-7a1d440543ea}, !- Space Name
  Outdoors,                               !- Outside Boundary Condition
  ,                                       !- Outside Boundary Condition Object
  SunExposed,                             !- Sun Exposure
  WindExposed,                            !- Wind Exposure
  ,                                       !- View Factor to Ground
  ,                                       !- Number of Vertices
  13.6310703908387, 6.81553519541936, 2.4384, !- X,Y,Z Vertex 1 {m}
  13.6310703908387, 6.81553519541936, 0,  !- X,Y,Z Vertex 2 {m}
  0, 6.81553519541936, 0,                 !- X,Y,Z Vertex 3 {m}
  0, 6.81553519541936, 2.4384;            !- X,Y,Z Vertex 4 {m}

OS:Surface,
  {2d2e8c1a-3901-46d9-a1d3-083789eb5e35}, !- Handle
  Surface 10,                             !- Name
  Wall,                                   !- Surface Type
  ,                                       !- Construction Name
  {40ddfb16-0770-45cd-8d7b-7a1d440543ea}, !- Space Name
  Outdoors,                               !- Outside Boundary Condition
  ,                                       !- Outside Boundary Condition Object
  SunExposed,                             !- Sun Exposure
  WindExposed,                            !- Wind Exposure
  ,                                       !- View Factor to Ground
  ,                                       !- Number of Vertices
  13.6310703908387, 0, 2.4384,            !- X,Y,Z Vertex 1 {m}
  13.6310703908387, 0, 0,                 !- X,Y,Z Vertex 2 {m}
  13.6310703908387, 6.81553519541936, 0,  !- X,Y,Z Vertex 3 {m}
  13.6310703908387, 6.81553519541936, 2.4384; !- X,Y,Z Vertex 4 {m}

OS:Surface,
  {d5ebb6d9-283b-4a13-b7c0-f345b8efc84f}, !- Handle
  Surface 11,                             !- Name
  Wall,                                   !- Surface Type
  ,                                       !- Construction Name
  {40ddfb16-0770-45cd-8d7b-7a1d440543ea}, !- Space Name
  Outdoors,                               !- Outside Boundary Condition
  ,                                       !- Outside Boundary Condition Object
  SunExposed,                             !- Sun Exposure
  WindExposed,                            !- Wind Exposure