
OS:Version,
  {32fa1fdc-cc41-4061-9864-46565f154b53}, !- Handle
  1.3.1;                                  !- Version Identifier

OS:Construction,
  {d8b34987-4891-47bf-a325-9ca8e8714d9c}, !- Handle
  ExtInsFinWall,                          !- Name
  ,                                       !- Surface Rendering Name
  {452b6d42-868f-4d0c-ad80-4ce40c9f59d8}, !- Layer 1
  {7b99ceb6-56c5-482e-9dc7-18949bdad436}, !- Layer 2
  {8cef83be-b763-454b-88b1-680e67f2b7a5}, !- Layer 3
  {99e497d0-4ca5-42d6-8d54-9e65222fc150}; !- Layer 4

OS:Material,
  {452b6d42-868f-4d0c-ad80-4ce40c9f59d8}, !- Handle
  Exterior_Finish_Vinyl_Light,            !- Name
  Rough,                                  !- Roughness
  0.009525,                               !- Thickness {m}
  0.089435,                               !- Conductivity {W/m-K}
  177.822,                                !- Density {kg/m3}
  1046.75,                                !- Specific Heat {J/kg-K}
  0.9,                                    !- Thermal Absorptance
  0.3,                                    !- Solar Absorptance
  0.3;                                    !- Visible Absorptance

OS:Material,
  {7b99ceb6-56c5-482e-9dc7-18949bdad436}, !- Handle
  Plywood_1_2in,                          !- Name
  Rough,                                  !- Roughness
  0.0127,                                 !- Thickness {m}
  0.1154577,                              !- Conductivity {W/m-K}
  512.64,                                 !- Density {kg/m3}
  1214.23;                                !- Specific Heat {J/kg-K}

OS:Material,
  {99e497d0-4ca5-42d6-8d54-9e65222fc150}, !- Handle
  GypsumBoard_1_2in,                      !- Name
  Rough,                                  !- Roughness
  0.0127,                                 !- Thickness {m}
  0.1602906,                              !- Conductivity {W/m-K}
  801,                                    !- Density {kg/m3}
  837.4;                                  !- Specific Heat {J/kg-K}

OS:Material,
  {8cef83be-b763-454b-88b1-680e67f2b7a5}, !- Handle
  StudandCavity,                          !- Name
  Rough,                                  !- Roughness
  0.1397,                                 !- Thickness {m}
  0.0556950698320778,                     !- Conductivity {W/m-K}
  148.39326,                              !- Density {kg/m3}
  1174.03696966425;                       !- Specific Heat {J/kg-K}

