
OS:Version,
  {db330524-202f-4b19-b6a3-e5cb5930cffc}, !- Handle
  1.3.1;                                  !- Version Identifier

OS:Construction,
  {77ffe857-92be-4d70-be37-54c27cb5f092}, !- Handle
  ExtInsFinWall,                          !- Name
  ,                                       !- Surface Rendering Name
  {b008ae42-84be-4b6d-9f93-ff88b28880e5}, !- Layer 1
  {465777d9-90ca-4286-91c9-ea67cdf6d636}, !- Layer 2
  {de731f97-7837-4b54-b533-44f7383dfb93}, !- Layer 3
  {ca67716e-93ec-4bfa-b615-f0fcdb60f03d}, !- Layer 4
  {0b95dc91-653e-45fc-9700-4b178b8e4787}, !- Layer 5
  {deddc604-da4f-471c-af36-686dd5500995}; !- Layer 6

OS:Material,
  {b008ae42-84be-4b6d-9f93-ff88b28880e5}, !- Handle
  Exterior_Finish_Vinyl_Light,            !- Name
  Rough,                                  !- Roughness
  0.009525,                               !- Thickness {m}
  0.089435,                               !- Conductivity {W/m-K}
  177.822,                                !- Density {kg/m3}
  1046.75,                                !- Specific Heat {J/kg-K}
  0.9,                                    !- Thermal Absorptance
  0.3,                                    !- Solar Absorptance
  0.3;                                    !- Visible Absorptance

OS:Material,
  {465777d9-90ca-4286-91c9-ea67cdf6d636}, !- Handle
  Plywood_1_2in,                          !- Name
  Rough,                                  !- Roughness
  0.0127,                                 !- Thickness {m}
  0.1154577,                              !- Conductivity {W/m-K}
  512.64,                                 !- Density {kg/m3}
  1214.23;                                !- Specific Heat {J/kg-K}

OS:Material,
  {deddc604-da4f-471c-af36-686dd5500995}, !- Handle
  GypsumBoard_1_2in,                      !- Name
  Rough,                                  !- Roughness
  0.0127,                                 !- Thickness {m}
  0.1602906,                              !- Conductivity {W/m-K}
  801,                                    !- Density {kg/m3}
  837.4;                                  !- Specific Heat {J/kg-K}

OS:Material,
  {de731f97-7837-4b54-b533-44f7383dfb93}, !- Handle
  StudandCavity,                          !- Name
  Rough,                                  !- Roughness
  0.0889,                                 !- Thickness {m}
  0.0520936039836723,                     !- Conductivity {W/m-K}
  148.39326,                              !- Density {kg/m3}
  1174.03696966425;                       !- Specific Heat {J/kg-K}

OS:Material,
  {ca67716e-93ec-4bfa-b615-f0fcdb60f03d}, !- Handle
  Cavity,                                 !- Name
  Rough,                                  !- Roughness
  0.0889,                                 !- Thickness {m}
  0.0509043714038462,                     !- Conductivity {W/m-K}
  119.206822499999,                       !- Density {kg/m3}
  1160.18704077004;                       !- Specific Heat {J/kg-K}

OS:Material,
  {0b95dc91-653e-45fc-9700-4b178b8e4787}, !- Handle
  StudandCavity 1,                        !- Name
  Rough,                                  !- Roughness
  0.0889,                                 !- Thickness {m}
  0.0520936039836723,                     !- Conductivity {W/m-K}
  148.39326,                              !- Density {kg/m3}
  1174.03696966425;                       !- Specific Heat {J/kg-K}

