
OS:Version,
  {7cac67db-04d2-4da4-9894-ad53593ad87c}, !- Handle
  1.3.1;                                  !- Version Identifier

OS:Construction,
  {8e44b86f-51f0-4511-8a7e-2825f287a1e9}, !- Handle
  UnfinCSInsFinFloor,                     !- Name
  ,                                       !- Surface Rendering Name
  {2e3f8f76-871f-4de3-a081-4103aa0e7a92}, !- Layer 1
  {01efedf9-7032-4048-9605-7c721b7f5add}, !- Layer 2
  {882f52e9-8db9-49e8-841f-a3a7ef175c1f}, !- Layer 3
  {6aa8a577-a80e-4443-9fb8-233546711857}; !- Layer 4

OS:Material,
  {01efedf9-7032-4048-9605-7c721b7f5add}, !- Handle
  Plywood_3_4in,                          !- Name
  Rough,                                  !- Roughness
  0.01905,                                !- Thickness {m}
  0.1154577,                              !- Conductivity {W/m-K}
  512.64,                                 !- Density {kg/m3}
  1214.23;                                !- Specific Heat {J/kg-K}

OS:Material,
  {882f52e9-8db9-49e8-841f-a3a7ef175c1f}, !- Handle
  Floor_Mass_Wood_Surface,                !- Name
  Rough,                                  !- Roughness
  0.015875,                               !- Thickness {m}
  0.1154577,                              !- Conductivity {W/m-K}
  544.68,                                 !- Density {kg/m3}
  1214.23,                                !- Specific Heat {J/kg-K}
  0.9,                                    !- Thermal Absorptance
  0.6;                                    !- Solar Absorptance

OS:Material,
  {6aa8a577-a80e-4443-9fb8-233546711857}, !- Handle
  CarpetBareLayer,                        !- Name
  Rough,                                  !- Roughness
  0.0127,                                 !- Thickness {m}
  0.0433443509615385,                     !- Conductivity {W/m-K}
  54.4679999999999,                       !- Density {kg/m3}
  1339.84;                                !- Specific Heat {J/kg-K}

OS:Material,
  {2e3f8f76-871f-4de3-a081-4103aa0e7a92}, !- Handle
  CrawlCeilingIns,                        !- Name
  Rough,                                  !- Roughness
  0.23495,                                !- Thickness {m}
  0.0435332421077723,                     !- Conductivity {W/m-K}
  106.36479,                              !- Density {kg/m3}
  1151.68513065742;                       !- Specific Heat {J/kg-K}

