
OS:Version,
  {4699cfe8-c5d1-48a0-9db3-519ec6014dfa}, !- Handle
  1.9.0;                                  !- Version Identifier

OS:Site,
  {60986a4d-cd47-4b58-a79c-489c9a6af701}, !- Handle
  Atlanta Hartsfield Intl Ap,             !- Name
  33.63,                                  !- Latitude {deg}
  -84.43,                                 !- Longitude {deg}
  -5,                                     !- Time Zone {hr}
  308,                                    !- Elevation {m}
  Suburbs;                                !- Terrain

OS:SimulationControl,
  {00650a6e-aa37-4284-9a1e-74f85f700148}, !- Handle
  Yes,                                    !- Do Zone Sizing Calculation
  No,                                     !- Do System Sizing Calculation
  Yes,                                    !- Do Plant Sizing Calculation
  No,                                     !- Run Simulation for Sizing Periods
  Yes,                                    !- Run Simulation for Weather File Run Periods
  0.05,                                   !- Loads Convergence Tolerance Value
  0.05,                                   !- Temperature Convergence Tolerance Value {deltaC}
  FullExterior,                           !- Solar Distribution
  50;                                     !- Maximum Number of Warmup Days

OS:Surface,
  {169aa622-d271-437f-b6f3-54fc705de24e}, !- Handle
  IntWall27,                              !- Name
  Wall,                                   !- Surface Type
  {87d1606f-5e31-43b1-bd49-9e460d6fd7c0}, !- Construction Name
  {706da858-1d10-4548-9b6e-cd38020ea7f4}, !- Space Name
  Adiabatic,                              !- Outside Boundary Condition
  ,                                       !- Outside Boundary Condition Object
  NoSun,                                  !- Sun Exposure
  NoWind,                                 !- Wind Exposure
  0,                                      !- View Factor to Ground
  ,                                       !- Number of Vertices
  0, 7.9248, 4.8768,                      !- X,Y,Z Vertex 1 {m}
  0, 7.9248, 2.4384,                      !- X,Y,Z Vertex 2 {m}
  0, 0, 2.4384,                           !- X,Y,Z Vertex 3 {m}
  0, 0, 4.8768;                           !- X,Y,Z Vertex 4 {m}

OS:Construction,
  {87d1606f-5e31-43b1-bd49-9e460d6fd7c0}, !- Handle
  RevFinUninsFinWall,                     !- Name
  {e2ea31cf-1913-4682-84d9-0c810899e34c}, !- Surface Rendering Name
  {e618a043-a4d1-491d-9c92-d2034a631b34}, !- Layer 1
  {4f452dd8-a56a-40a3-ad09-f600ecb9ea6e}, !- Layer 2
  {e618a043-a4d1-491d-9c92-d2034a631b34}; !- Layer 3

OS:Material,
  {e618a043-a4d1-491d-9c92-d2034a631b34}, !- Handle
  PartitionWallMass,                      !- Name
  Rough,                                  !- Roughness
  0.0127,                                 !- Thickness {m}
  0.1602906,                              !- Conductivity {W/m-K}
  801,                                    !- Density {kg/m3}
  837.4,                                  !- Specific Heat {J/kg-K}
  0.9,                                    !- Thermal Absorptance
  0.5,                                    !- Solar Absorptance
  0.1;                                    !- Visible Absorptance

OS:Material,
  {4f452dd8-a56a-40a3-ad09-f600ecb9ea6e}, !- Handle
  StudandAirWall,                         !- Name
  Rough,                                  !- Roughness
  0.0889,                                 !- Thickness {m}
  0.442568232,                            !- Conductivity {W/m-K}
  49.1000362486358,                       !- Density {kg/m3}
  1209.79555136641;                       !- Specific Heat {J/kg-K}

OS:ThermalZone,
  {c64f904f-d512-4dd4-a2d9-5f697a24cda2}, !- Handle
  living_4 Thermal Zone,                  !- Name
  1,                                      !- Multiplier
  4.8768,                                 !- Ceiling Height {m}
  347.957415936,                          !- Volume {m3}
  ,                                       !- Floor Area {m2}
  ,                                       !- Zone Inside Convection Algorithm
  ,                                       !- Zone Outside Convection Algorithm
  ,                                       !- Zone Conditioning Equipment List Name
  {40c18352-5d95-4c1b-9d9b-90c220a3041d}, !- Zone Air Inlet Port List
  {d3ddd3a0-7666-4067-8026-418521b69faf}, !- Zone Air Exhaust Port List
  {abf7a3da-2f9b-4561-b16d-5dcb72443372}, !- Zone Air Node Name
  ,                                       !- Zone Return Air Node Name
  ,                                       !- Primary Daylighting Control Name
  ,                                       !- Fraction of Zone Controlled by Primary Daylighting Control
  ,                                       !- Secondary Daylighting Control Name
  ,                                       !- Fraction of Zone Controlled by Secondary Daylighting Control
  ,                                       !- Illuminance Map Name
  {0015299b-d0b5-4b05-b303-77e96811d791}, !- Group Rendering Name
  ,                                       !- Thermostat Name
  No;                                     !- Use Ideal Air Loads

OS:Node,
  {ae6c063c-55cb-4c90-8d20-a899192915ed}, !- Handle
  {8fba14b1-cb10-4335-89b9-181bd0311bec}, !- Name
  {abf7a3da-2f9b-4561-b16d-5dcb72443372}, !- Inlet Port
  ;                                       !- Outlet Port

OS:Connection,
  {abf7a3da-2f9b-4561-b16d-5dcb72443372}, !- Handle
  {e37193d2-0193-4a39-be58-fb596b8be368}, !- Name
  {c64f904f-d512-4dd4-a2d9-5f697a24cda2}, !- Source Object
  11,                                     !- Outlet Port
  {ae6c063c-55cb-4c90-8d20-a899192915ed}, !- Target Object
  2;                                      !- Inlet Port

OS:PortList,
  {40c18352-5d95-4c1b-9d9b-90c220a3041d}, !- Handle
  {766e29ee-1b94-4d13-87ae-aaa18c04924a}, !- Name
  {c64f904f-d512-4dd4-a2d9-5f697a24cda2}; !- HVAC Component

OS:PortList,
  {d3ddd3a0-7666-4067-8026-418521b69faf}, !- Handle
  {8decebec-2454-46bd-9ec0-e6a7eab3c98f}, !- Name
  {c64f904f-d512-4dd4-a2d9-5f697a24cda2}; !- HVAC Component

OS:Sizing:Zone,
  {d1acd7a7-a8ac-4af3-b1f5-091a262d88f8}, !- Handle
  {c64f904f-d512-4dd4-a2d9-5f697a24cda2}, !- Zone or ZoneList Name
  14,                                     !- Zone Cooling Design Supply Air Temperature {C}
  40,                                     !- Zone Heating Design Supply Air Temperature {C}
  0.0085,                                 !- Zone Cooling Design Supply Air Humidity Ratio {kg-H2O/kg-air}
  0.008,                                  !- Zone Heating Design Supply Air Humidity Ratio {kg-H2O/kg-air}
  ,                                       !- Zone Heating Sizing Factor
  ,                                       !- Zone Cooling Sizing Factor
  DesignDay,                              !- Cooling Design Air Flow Method
  ,                                       !- Cooling Design Air Flow Rate {m3/s}
  ,                                       !- Cooling Minimum Air Flow per Zone Floor Area {m3/s-m2}
  ,                                       !- Cooling Minimum Air Flow {m3/s}
  ,                                       !- Cooling Minimum Air Flow Fraction
  DesignDay,                              !- Heating Design Air Flow Method
  ,                                       !- Heating Design Air Flow Rate {m3/s}
  ,                                       !- Heating Maximum Air Flow per Zone Floor Area {m3/s-m2}
  ,                                       !- Heating Maximum Air Flow {m3/s}
  ,                                       !- Heating Maximum Air Flow Fraction
  ,                                       !- Design Zone Air Distribution Effectiveness in Cooling Mode
  ;                                       !- Design Zone Air Distribution Effectiveness in Heating Mode

OS:ZoneHVAC:EquipmentList,
  {a5cbc59e-917e-4119-b193-a5f189e47cfb}, !- Handle
  {4a178cc0-1996-4705-b589-f8c1aa48ca3c}, !- Name
  {c64f904f-d512-4dd4-a2d9-5f697a24cda2}; !- Thermal Zone

OS:Space,
  {706da858-1d10-4548-9b6e-cd38020ea7f4}, !- Handle
  living_4,                               !- Name
  {0388fe88-cad5-4837-92ba-b9daf3e05a0a}, !- Space Type Name
  ,                                       !- Default Construction Set Name
  ,                                       !- Default Schedule Set Name
  0,                                      !- Direction of Relative North {deg}
  0,                                      !- X Origin {m}
  -3.2004,                                !- Y Origin {m}
  0,                                      !- Z Origin {m}
  ,                                       !- Building Story Name
  {c64f904f-d512-4dd4-a2d9-5f697a24cda2}, !- Thermal Zone Name
  ,                                       !- Part of Total Floor Area
  ;                                       !- Design Specification Outdoor Air Object Name

OS:Surface,
  {01933162-528f-4ec7-9e0f-401001fe3809}, !- Handle
  Wall26,                                 !- Name
  Wall,                                   !- Surface Type
  {cc5f1ca9-e991-4116-ae44-b9295a3b6be0}, !- Construction Name
  {fa3e79fe-8c5a-45ad-a866-4f3d14e8105e}, !- Space Name
  Outdoors,                               !- Outside Boundary Condition
  ,                                       !- Outside Boundary Condition Object
  SunExposed,                             !- Sun Exposure
  WindExposed,                            !- Wind Exposure
  ,                                       !- View Factor to Ground
  ,                                       !- Number of Vertices
  0, 0, 4.8768,                           !- X,Y,Z Vertex 1 {m}
  0, 0, 2.4384,                           !- X,Y,Z Vertex 2 {m}
  9.7536, 0, 2.4384,                      !- X,Y,Z Vertex 3 {m}
  9.7536, 0, 4.8768;                      !- X,Y,Z Vertex 4 {m}

OS:Construction,
  {cc5f1ca9-e991-4116-ae44-b9295a3b6be0}, !- Handle
  ExtInsFinWall,                          !- Name
  {40650712-a249-4362-a00c-d110ebe7604d}, !- Surface Rendering Name
  {bcab3d73-1a18-440c-accb-87d1dec3cc50}, !- Layer 1
  {dee11205-4c05-4055-95c4-343c11e5464d}, !- Layer 2
  {4b0fe271-af9f-4800-8942-c1176d23882b}; !- Layer 3

OS:Material,
  {bcab3d73-1a18-440c-accb-87d1dec3cc50}, !- Handle
  ExteriorFinish,                         !- Name
  Rough,                                  !- Roughness
  0.0254,                                 !- Thickness {m}
  0.649125,                               !- Conductivity {W/m-K}
  1281.6,                                 !- Density {kg/m3}
  879.27,                                 !- Specific Heat {J/kg-K}
  0.9,                                    !- Thermal Absorptance
  0.75,                                   !- Solar Absorptance
  0.75;                                   !- Visible Absorptance

OS:Material,
  {dee11205-4c05-4055-95c4-343c11e5464d}, !- Handle
  StudandCavity,                          !- Name
  Rough,                                  !- Roughness
  0.0889,                                 !- Thickness {m}
  0.0553845876584766,                     !- Conductivity {W/m-K}
  162.40275,                              !- Density {kg/m3}
  1178.91670776819;                       !- Specific Heat {J/kg-K}

OS:Material,
  {4b0fe271-af9f-4800-8942-c1176d23882b}, !- Handle
  ExtWallMass,                            !- Name
  Rough,                                  !- Roughness
  0.0127,                                 !- Thickness {m}
  0.1602906,                              !- Conductivity {W/m-K}
  801,                                    !- Density {kg/m3}
  837.4,                                  !- Specific Heat {J/kg-K}
  0.9,                                    !- Thermal Absorptance
  0.5,                                    !- Solar Absorptance
  0.1;                                    !- Visible Absorptance

OS:ThermalZone,
  {1d77c63b-dd06-472e-b013-d136b86bb4cd}, !- Handle
  living_3 Thermal Zone,                  !- Name
  1,                                      !- Multiplier
  4.8768,                                 !- Ceiling Height {m}
  536.434349568,                          !- Volume {m3}
  ,                                       !- Floor Area {m2}
  ,                                       !- Zone Inside Convection Algorithm
  ,                                       !- Zone Outside Convection Algorithm
  ,                                       !- Zone Conditioning Equipment List Name
  {3084dd6e-ba2c-4bad-812a-0226af93d5cb}, !- Zone Air Inlet Port List
  {11591b37-d46a-43d6-b2a8-a93d30294aa0}, !- Zone Air Exhaust Port List
  {3f660585-cfbc-45cf-bf7b-cc42a18cc730}, !- Zone Air Node Name
  ,                                       !- Zone Return Air Node Name
  ,                                       !- Primary Daylighting Control Name
  ,                                       !- Fraction of Zone Controlled by Primary Daylighting Control
  ,                                       !- Secondary Daylighting Control Name
  ,                                       !- Fraction of Zone Controlled by Secondary Daylighting Control
  ,                                       !- Illuminance Map Name
  {163f4d7c-0e1a-4beb-a3fc-2cf6003b2da7}, !- Group Rendering Name
  ,                                       !- Thermostat Name
  No;                                     !- Use Ideal Air Loads

OS:Node,
  {35a2c76b-b8f6-428f-9405-bed01b3bbe16}, !- Handle
  {cb4c3b58-7305-4b01-ac83-067d5f57f0c0}, !- Name
  {3f660585-cfbc-45cf-bf7b-cc42a18cc730}, !- Inlet Port
  ;                                       !- Outlet Port

OS:Connection,
  {3f660585-cfbc-45cf-bf7b-cc42a18cc730}, !- Handle
  {e09fa568-0dd1-4e84-81d5-a09782117403}, !- Name
  {1d77c63b-dd06-472e-b013-d136b86bb4cd}, !- Source Object
  11,                                     !- Outlet Port
  {35a2c76b-b8f6-428f-9405-bed01b3bbe16}, !- Target Object
  2;                                      !- Inlet Port

OS:PortList,
  {3084dd6e-ba2c-4bad-812a-0226af93d5cb}, !- Handle
  {f2c83b91-f4c9-4ed3-825f-6a0e62bccdff}, !- Name
  {1d77c63b-dd06-472e-b013-d136b86bb4cd}; !- HVAC Component

OS:PortList,
  {11591b37-d46a-43d6-b2a8-a93d30294aa0}, !- Handle
  {f6c035a6-682e-4672-9a81-2d427504e1a2}, !- Name
  {1d77c63b-dd06-472e-b013-d136b86bb4cd}; !- HVAC Component

OS:Sizing:Zone,
  {4d2a3971-402c-4395-9fab-a0e84f834c7e}, !- Handle
  {1d77c63b-dd06-472e-b013-d136b86bb4cd}, !- Zone or ZoneList Name
  14,                                     !- Zone Cooling Design Supply Air Temperature {C}
  40,                                     !- Zone Heating Design Supply Air Temperature {C}
  0.0085,                                 !- Zone Cooling Design Supply Air Humidity Ratio {kg-H2O/kg-air}
  0.008,                                  !- Zone Heating Design Supply Air Humidity Ratio {kg-H2O/kg-air}
  ,                                       !- Zone Heating Sizing Factor
  ,                                       !- Zone Cooling Sizing Factor
  DesignDay,                              !- Cooling Design Air Flow Method
  ,                                       !- Cooling Design Air Flow Rate {m3/s}
  ,                                       !- Cooling Minimum Air Flow per Zone Floor Area {m3/s-m2}
  ,                                       !- Cooling Minimum Air Flow {m3/s}
  ,                                       !- Cooling Minimum Air Flow Fraction
  DesignDay,                              !- Heating Design Air Flow Method
  ,                                       !- Heating Design Air Flow Rate {m3/s}
  ,                                       !- Heating Maximum Air Flow per Zone Floor Area {m3/s-m2}
  ,                                       !- Heating Maximum Air Flow {m3/s}
  ,                                       !- Heating Maximum Air Flow Fraction
  ,                                       !- Design Zone Air Distribution Effectiveness in Cooling Mode
  ;                                       !- Design Zone Air Distribution Effectiveness in Heating Mode

OS:ZoneHVAC:EquipmentList,
  {7083d08f-e8e5-42b9-947e-aff41db2b9f6}, !- Handle
  {7d251ff0-3572-44c7-82c6-d6ef2bb1fd59}, !- Name
  {1d77c63b-dd06-472e-b013-d136b86bb4cd}; !- Thermal Zone

OS:Space,
  {fa3e79fe-8c5a-45ad-a866-4f3d14e8105e}, !- Handle
  living_3,                               !- Name
  {0388fe88-cad5-4837-92ba-b9daf3e05a0a}, !- Space Type Name
  ,                                       !- Default Construction Set Name
  ,                                       !- Default Schedule Set Name
  0,                                      !- Direction of Relative North {deg}
  -9.7536,                                !- X Origin {m}
  -6.5532,                                !- Y Origin {m}
  0,                                      !- Z Origin {m}
  ,                                       !- Building Story Name
  {1d77c63b-dd06-472e-b013-d136b86bb4cd}, !- Thermal Zone Name
  ,                                       !- Part of Total Floor Area
  ;                                       !- Design Specification Outdoor Air Object Name

OS:Construction,
  {5bef75c7-4809-4778-a32c-cee85e5bc43d}, !- Handle
  UnfinUninsExtRoof,                      !- Name
  {39d24f9a-58ff-4834-a52d-038080b9960c}, !- Surface Rendering Name
  {71f2d1a8-1cdd-4411-9297-077892765a0e}, !- Layer 1
  {ea9383fa-447a-4aee-b03e-de681443b4d4}, !- Layer 2
  {8a69d8c7-ba4d-48fe-a3cb-d1ba636fc8af}; !- Layer 3

OS:Material,
  {71f2d1a8-1cdd-4411-9297-077892765a0e}, !- Handle
  RoofingMaterial,                        !- Name
  Rough,                                  !- Roughness
  0.0094488,                              !- Thickness {m}
  0.162714,                               !- Conductivity {W/m-K}
  1121.4,                                 !- Density {kg/m3}
  1465.45,                                !- Specific Heat {J/kg-K}
  0.91,                                   !- Thermal Absorptance
  0.92,                                   !- Solar Absorptance
  0.92;                                   !- Visible Absorptance

OS:Material,
  {ea9383fa-447a-4aee-b03e-de681443b4d4}, !- Handle
  Plywood-3_4in,                          !- Name
  Rough,                                  !- Roughness
  0.01905,                                !- Thickness {m}
  0.1154577,                              !- Conductivity {W/m-K}
  512.64,                                 !- Density {kg/m3}
  1214.23;                                !- Specific Heat {J/kg-K}

OS:Material,
  {8a69d8c7-ba4d-48fe-a3cb-d1ba636fc8af}, !- Handle
  StudandAirRoof,                         !- Name
  Rough,                                  !- Roughness
  0.0889,                                 !- Thickness {m}
  3.24413796952498,                       !- Conductivity {W/m-K}
  57.4117873227982,                       !- Density {kg/m3}
  1210.50554817575;                       !- Specific Heat {J/kg-K}

OS:SubSurface,
  {390731c4-8666-457f-8c8f-8073982a6c66}, !- Handle
  Wall38-Window1,                         !- Name
  FixedWindow,                            !- Sub Surface Type
  {7e1849e1-a635-462e-9451-8b5f04dcfa90}, !- Construction Name
  {3af4aa9f-4a37-4a95-8963-031bf5a6a532}, !- Surface Name
  ,                                       !- Outside Boundary Condition Object
  0.5,                                    !- View Factor to Ground
  ,                                       !- Shading Control Name
  ,                                       !- Frame and Divider Name
  1,                                      !- Multiplier
  ,                                       !- Number of Vertices
  6.7842941784, 11.2776, 4.572,           !- X,Y,Z Vertex 1 {m}
  6.7842941784, 11.2776, 3.363446514648,  !- X,Y,Z Vertex 2 {m}
  5.877652353384, 11.2776, 3.363446514648, !- X,Y,Z Vertex 3 {m}
  5.877652353384, 11.2776, 4.572;         !- X,Y,Z Vertex 4 {m}

OS:Construction,
  {7e1849e1-a635-462e-9451-8b5f04dcfa90}, !- Handle
  Back-Glass,                             !- Name
  {70d7b7e2-ff78-4bf2-89b1-4217c408b17a}, !- Surface Rendering Name
  {358422f8-fb2b-4d86-a8b4-20b7d81f0bd8}; !- Layer 1

OS:WindowMaterial:SimpleGlazingSystem,
  {358422f8-fb2b-4d86-a8b4-20b7d81f0bd8}, !- Handle
  Back-Win,                               !- Name
  1.98076528277124,                       !- U-Factor {W/m2-K}
  0.309130645437316;                      !- Solar Heat Gain Coefficient

OS:Surface,
  {3af4aa9f-4a37-4a95-8963-031bf5a6a532}, !- Handle
  Wall38,                                 !- Name
  Wall,                                   !- Surface Type
  {cc5f1ca9-e991-4116-ae44-b9295a3b6be0}, !- Construction Name
  {c75c0ec5-8550-4b30-a7c3-52c917e7e2d2}, !- Space Name
  Outdoors,                               !- Outside Boundary Condition
  ,                                       !- Outside Boundary Condition Object
  SunExposed,                             !- Sun Exposure
  WindExposed,                            !- Wind Exposure
  ,                                       !- View Factor to Ground
  ,                                       !- Number of Vertices
  9.7536, 11.2776, 4.8768,                !- X,Y,Z Vertex 1 {m}
  9.7536, 11.2776, 2.4384,                !- X,Y,Z Vertex 2 {m}
  0, 11.2776, 2.4384,                     !- X,Y,Z Vertex 3 {m}
  0, 11.2776, 4.8768;                     !- X,Y,Z Vertex 4 {m}

OS:ThermalZone,
  {48c3e69e-4b3d-45fa-a60a-116718a06066}, !- Handle
  living_5 Thermal Zone,                  !- Name
  1,                                      !- Multiplier
  4.8768,                                 !- Ceiling Height {m}
  536.434349568,                          !- Volume {m3}
  ,                                       !- Floor Area {m2}
  ,                                       !- Zone Inside Convection Algorithm
  ,                                       !- Zone Outside Convection Algorithm
  ,                                       !- Zone Conditioning Equipment List Name
  {972a8b0e-d628-4e30-a8a7-f8a9cb2f071c}, !- Zone Air Inlet Port List
  {3d569938-4e21-41ef-959c-953eb3b39982}, !- Zone Air Exhaust Port List
  {a7972311-b8e6-4b6a-8c92-c950ede12801}, !- Zone Air Node Name
  ,                                       !- Zone Return Air Node Name
  ,                                       !- Primary Daylighting Control Name
  ,                                       !- Fraction of Zone Controlled by Primary Daylighting Control
  ,                                       !- Secondary Daylighting Control Name
  ,                                       !- Fraction of Zone Controlled by Secondary Daylighting Control
  ,                                       !- Illuminance Map Name
  {a1b44baa-1342-44af-8fa9-4988394b0bdc}, !- Group Rendering Name
  ,                                       !- Thermostat Name
  No;                                     !- Use Ideal Air Loads

OS:Node,
  {1c31ba1f-d248-4517-8ee9-a8d70f33881e}, !- Handle
  {e0b23273-bdd2-49fe-b2c8-e0973cdd60ef}, !- Name
  {a7972311-b8e6-4b6a-8c92-c950ede12801}, !- Inlet Port
  ;                                       !- Outlet Port

OS:Connection,
  {a7972311-b8e6-4b6a-8c92-c950ede12801}, !- Handle
  {a8e85fc7-6019-42e5-9eda-b2d3b9e83fc4}, !- Name
  {48c3e69e-4b3d-45fa-a60a-116718a06066}, !- Source Object
  11,                                     !- Outlet Port
  {1c31ba1f-d248-4517-8ee9-a8d70f33881e}, !- Target Object
  2;                                      !- Inlet Port

OS:PortList,
  {972a8b0e-d628-4e30-a8a7-f8a9cb2f071c}, !- Handle
  {01013b62-901e-4343-9287-e0cbfe6a742b}, !- Name
  {48c3e69e-4b3d-45fa-a60a-116718a06066}; !- HVAC Component

OS:PortList,
  {3d569938-4e21-41ef-959c-953eb3b39982}, !- Handle
  {35fa9f3d-7b31-43a6-98f0-263e0dcb92c9}, !- Name
  {48c3e69e-4b3d-45fa-a60a-116718a06066}; !- HVAC Component

OS:Sizing:Zone,
  {893b5574-e3c8-4b45-a783-a8e2860ec652}, !- Handle
  {48c3e69e-4b3d-45fa-a60a-116718a06066}, !- Zone or ZoneList Name
  14,                                     !- Zone Cooling Design Supply Air Temperature {C}
  40,                                     !- Zone Heating Design Supply Air Temperature {C}
  0.0085,                                 !- Zone Cooling Design Supply Air Humidity Ratio {kg-H2O/kg-air}
  0.008,                                  !- Zone Heating Design Supply Air Humidity Ratio {kg-H2O/kg-air}
  ,                                       !- Zone Heating Sizing Factor
  ,                                       !- Zone Cooling Sizing Factor
  DesignDay,                              !- Cooling Design Air Flow Method
  ,                                       !- Cooling Design Air Flow Rate {m3/s}
  ,                                       !- Cooling Minimum Air Flow per Zone Floor Area {m3/s-m2}
  ,                                       !- Cooling Minimum Air Flow {m3/s}
  ,                                       !- Cooling Minimum Air Flow Fraction
  DesignDay,                              !- Heating Design Air Flow Method
  ,                                       !- Heating Design Air Flow Rate {m3/s}
  ,                                       !- Heating Maximum Air Flow per Zone Floor Area {m3/s-m2}
  ,                                       !- Heating Maximum Air Flow {m3/s}
  ,                                       !- Heating Maximum Air Flow Fraction
  ,                                       !- Design Zone Air Distribution Effectiveness in Cooling Mode
  ;                                       !- Design Zone Air Distribution Effectiveness in Heating Mode

OS:ZoneHVAC:EquipmentList,
  {4bfea73c-7183-422a-a7aa-dfab6d36ee45}, !- Handle
  {00e721c5-c579-459e-a6d9-0c33e9c275cf}, !- Name
  {48c3e69e-4b3d-45fa-a60a-116718a06066}; !- Thermal Zone

OS:Space,
  {c75c0ec5-8550-4b30-a7c3-52c917e7e2d2}, !- Handle
  living_5,                               !- Name
  {0388fe88-cad5-4837-92ba-b9daf3e05a0a}, !- Space Type Name
  ,                                       !- Default Construction Set Name
  ,                                       !- Default Schedule Set Name
  0,                                      !- Direction of Relative North {deg}
  7.3152,                                 !- X Origin {m}
  -6.5532,                                !- Y Origin {m}
  0,                                      !- Z Origin {m}
  ,                                       !- Building Story Name
  {48c3e69e-4b3d-45fa-a60a-116718a06066}, !- Thermal Zone Name
  ,                                       !- Part of Total Floor Area
  ;                                       !- Design Specification Outdoor Air Object Name

OS:Surface,
  {70d80c5b-8912-48d7-9275-1af409ea10ca}, !- Handle
  Wall34,                                 !- Name
  Wall,                                   !- Surface Type
  {cc5f1ca9-e991-4116-ae44-b9295a3b6be0}, !- Construction Name
  {706da858-1d10-4548-9b6e-cd38020ea7f4}, !- Space Name
  Outdoors,                               !- Outside Boundary Condition
  ,                                       !- Outside Boundary Condition Object
  SunExposed,                             !- Sun Exposure
  WindExposed,                            !- Wind Exposure
  ,                                       !- View Factor to Ground
  ,                                       !- Number of Vertices
  7.3152, 9.7536, 4.8768,                 !- X,Y,Z Vertex 1 {m}
  7.3152, 9.7536, 2.4384,                 !- X,Y,Z Vertex 2 {m}
  0, 9.7536, 2.4384,                      !- X,Y,Z Vertex 3 {m}
  0, 9.7536, 4.8768;                      !- X,Y,Z Vertex 4 {m}

OS:Surface,
  {42c31357-2c21-476d-bc90-5d68c7292b86}, !- Handle
  Wall7,                                  !- Name
  Wall,                                   !- Surface Type
  {cc5f1ca9-e991-4116-ae44-b9295a3b6be0}, !- Construction Name
  {fa3e79fe-8c5a-45ad-a866-4f3d14e8105e}, !- Space Name
  Outdoors,                               !- Outside Boundary Condition
  ,                                       !- Outside Boundary Condition Object
  SunExposed,                             !- Sun Exposure
  WindExposed,                            !- Wind Exposure
  ,                                       !- View Factor to Ground
  ,                                       !- Number of Vertices
  0, 0, 2.4384,                           !- X,Y,Z Vertex 1 {m}
  0, 0, 0,                                !- X,Y,Z Vertex 2 {m}
  9.7536, 0, 0,                           !- X,Y,Z Vertex 3 {m}
  9.7536, 0, 2.4384;                      !- X,Y,Z Vertex 4 {m}

OS:SubSurface,
  {4669208b-4868-4843-ad71-a2b0ef9e37a8}, !- Handle
  Wall26-Window2,                         !- Name
  FixedWindow,                            !- Sub Surface Type
  {8e203a80-584e-4731-a5c0-e26e595f9f1a}, !- Construction Name
  {01933162-528f-4ec7-9e0f-401001fe3809}, !- Surface Name
  ,                                       !- Outside Boundary Condition Object
  0.5,                                    !- View Factor to Ground
  ,                                       !- Shading Control Name
  ,                                       !- Frame and Divider Name
  1,                                      !- Multiplier
  ,                                       !- Number of Vertices
  3.29184, 0, 4.572,                      !- X,Y,Z Vertex 1 {m}
  3.29184, 0, 3.539424653928,             !- X,Y,Z Vertex 2 {m}
  4.066465175664, 0, 3.539424653928,      !- X,Y,Z Vertex 3 {m}
  4.066465175664, 0, 4.572;               !- X,Y,Z Vertex 4 {m}

OS:Construction,
  {8e203a80-584e-4731-a5c0-e26e595f9f1a}, !- Handle
  Front-Glass,                            !- Name
  {c3881039-3bf3-4423-a62d-58e2347e8488}, !- Surface Rendering Name
  {6f6278c7-325b-411a-9468-e6803e88049c}; !- Layer 1

OS:WindowMaterial:SimpleGlazingSystem,
  {6f6278c7-325b-411a-9468-e6803e88049c}, !- Handle
  Front-Win,                              !- Name
  1.98076528277124,                       !- U-Factor {W/m2-K}
  0.309130645437316;                      !- Solar Heat Gain Coefficient

OS:Construction,
  {0d9cba85-eceb-4519-8d39-c4ae45d1e89e}, !- Handle
  AdiabaticConst,                         !- Name
  {6363711d-163d-4807-aca7-9c34c98c1e7e}, !- Surface Rendering Name