
OS:Version,
  {a75bcf0c-e78c-4e59-a880-561af0fff06e}, !- Handle
  1.3.1;                                  !- Version Identifier

OS:Construction,
  {134cfdcf-1248-4d83-9bec-7f71bfb9eb07}, !- Handle
  ExtInsFinWall,                          !- Name
  ,                                       !- Surface Rendering Name
  {5d3950ff-a718-451a-85e5-4f41fb895902}, !- Layer 1
  {6129c23d-d5ec-4508-bf44-a62f15d95e95}, !- Layer 2
  {27f54f3d-5e40-409c-b90b-2c865790fb0d}, !- Layer 3
  {588c2b59-981d-4151-8118-a7c30f6bdc12}, !- Layer 4
  {a65c247d-de6e-4b42-81a9-ffa7c92ac7ef}, !- Layer 5
  {26e4b480-6993-432e-a293-103bb578542c}; !- Layer 6

OS:Material,
  {5d3950ff-a718-451a-85e5-4f41fb895902}, !- Handle
  Exterior_Finish_Vinyl_Light,            !- Name
  Rough,                                  !- Roughness
  0.009525,                               !- Thickness {m}
  0.089435,                               !- Conductivity {W/m-K}
  177.822,                                !- Density {kg/m3}
  1046.75,                                !- Specific Heat {J/kg-K}
  0.9,                                    !- Thermal Absorptance
  0.3,                                    !- Solar Absorptance
  0.3;                                    !- Visible Absorptance

OS:Material,
  {6129c23d-d5ec-4508-bf44-a62f15d95e95}, !- Handle
  Plywood_1_2in,                          !- Name
  Rough,                                  !- Roughness
  0.0127,                                 !- Thickness {m}
  0.1154577,                              !- Conductivity {W/m-K}
  512.64,                                 !- Density {kg/m3}
  1214.23;                                !- Specific Heat {J/kg-K}

OS:Material,
  {26e4b480-6993-432e-a293-103bb578542c}, !- Handle
  GypsumBoard_1_2in,                      !- Name
  Rough,                                  !- Roughness
  0.0127,                                 !- Thickness {m}
  0.1602906,                              !- Conductivity {W/m-K}
  801,                                    !- Density {kg/m3}
  837.4;                                  !- Specific Heat {J/kg-K}

OS:Material,
  {27f54f3d-5e40-409c-b90b-2c865790fb0d}, !- Handle
  StudandCavity,                          !- Name
  Rough,                                  !- Roughness
  0.0889,                                 !- Thickness {m}
  0.0583353854451465,                     !- Conductivity {W/m-K}
  148.39326,                              !- Density {kg/m3}
  1174.03696966425;                       !- Specific Heat {J/kg-K}

OS:Material,
  {588c2b59-981d-4151-8118-a7c30f6bdc12}, !- Handle
  Cavity,                                 !- Name
  Rough,                                  !- Roughness
  0.0889,                                 !- Thickness {m}
  0.0568534229772727,                     !- Conductivity {W/m-K}
  119.206822499999,                       !- Density {kg/m3}
  1160.18704077004;                       !- Specific Heat {J/kg-K}

OS:Material,
  {a65c247d-de6e-4b42-81a9-ffa7c92ac7ef}, !- Handle
  StudandCavity 1,                        !- Name
  Rough,                                  !- Roughness
  0.0889,                                 !- Thickness {m}
  0.0583353854451465,                     !- Conductivity {W/m-K}
  148.39326,                              !- Density {kg/m3}
  1174.03696966425;                       !- Specific Heat {J/kg-K}

