!- NOTE: Auto-generated from /test/osw_files/MF_8units_1story_SL_3Beds_2Baths_Denver_ElecWHTank.osw

OS:Version,
  {621c9ab0-97c7-4931-95cc-9c8138eadd6e}, !- Handle
  1.14.0;                                  !- Version Identifier

OS:Building,
  {bf305633-c5a1-4881-9edf-ca5e1a8e1274}, !- Handle
  Building,                               !- Name
  ,                                       !- Building Sector Type
  ,                                       !- North Axis {deg}
  ,                                       !- Nominal Floor to Floor Height {m}
  ,                                       !- Space Type Name
  ,                                       !- Default Construction Set Name
  ,                                       !- Default Schedule Set Name
  1,                                      !- Standards Number of Stories
  1,                                      !- Standards Number of Above Ground Stories
  multifamily,                            !- Standards Building Type
  8;                                      !- Standards Number of Living Units

OS:YearDescription,
  {513d8dda-86cb-442a-b01c-1f7f0e0ac70e}; !- Handle

OS:SimulationControl,
  {2c487a4c-bac9-4ac5-b669-1e49d9da7c2b}, !- Handle
  ,                                       !- Do Zone Sizing Calculation
  ,                                       !- Do System Sizing Calculation
  ,                                       !- Do Plant Sizing Calculation
  No,                                     !- Run Simulation for Sizing Periods
  ;                                       !- Run Simulation for Weather File Run Periods

OS:Timestep,
  {4ebc9f1e-4707-402e-9844-67eb1ffbd522}, !- Handle
  6;                                      !- Number of Timesteps per Hour

OS:RunPeriod,
  {28df894d-6af9-4fb8-8f56-df1753344aa3}, !- Handle
  Run Period,                             !- Name
  1,                                      !- Begin Month
  1,                                      !- Begin Day of Month
  12,                                     !- End Month
  31,                                     !- End Day of Month
  ,                                       !- Use Weather File Holidays and Special Days
  ,                                       !- Use Weather File Daylight Saving Period
  ,                                       !- Apply Weekend Holiday Rule
  ,                                       !- Use Weather File Rain Indicators
  ,                                       !- Use Weather File Snow Indicators
  ;                                       !- Number of Times Runperiod to be Repeated

OS:Sizing:Parameters,
  {dde5af6f-7923-4600-a28a-7556673a0266}, !- Handle
  1.0,                                    !- Heating Sizing Factor
  1.0;                                    !- Cooling Sizing Factor

OS:ShadowCalculation,
  {ca758bea-4416-4626-9bba-3d8795c79bd6}, !- Handle
  20,                                     !- Calculation Frequency
  200;                                    !- Maximum Figures in Shadow Overlap Calculations

OS:SurfaceConvectionAlgorithm:Inside,
  {aaabfc36-718a-4ab0-b622-f186ebb45230}, !- Handle
  TARP;                                   !- Algorithm

OS:SurfaceConvectionAlgorithm:Outside,
  {9a0a9f6f-4bbd-4b12-a121-9492a1fcd7d6}, !- Handle
  DOE-2;                                  !- Algorithm

OS:HeatBalanceAlgorithm,
  {9d93e563-e1e0-46d7-9e39-d1c8aceb7212}, !- Handle
  ConductionTransferFunction,             !- Algorithm
  200;                                    !- Surface Temperature Upper Limit {C}

OS:ZoneCapacitanceMultiplier:ResearchSpecial,
  {6bfced16-b16f-47f6-8223-f7e267d75d19}, !- Handle
  ,                                       !- Temperature Capacity Multiplier
  15,                                     !- Humidity Capacity Multiplier
  ;                                       !- Carbon Dioxide Capacity Multiplier

OS:ThermalZone,
  {8bdaa2f4-7823-4dfc-ae41-c566a4c57ea3}, !- Handle
  living zone,                            !- Name
  ,                                       !- Multiplier
  ,                                       !- Ceiling Height {m}
  ,                                       !- Volume {m3}
  ,                                       !- Floor Area {m2}
  ,                                       !- Zone Inside Convection Algorithm
  ,                                       !- Zone Outside Convection Algorithm
  ,                                       !- Zone Conditioning Equipment List Name
  {4d94178b-0bca-458a-9acf-9b71d6e30a54}, !- Zone Air Inlet Port List
  {21a24b56-8ce6-41f1-9f20-f17e16b7ce5c}, !- Zone Air Exhaust Port List
  {cba62cd4-e043-40da-b357-80d6c498d37a}, !- Zone Air Node Name
  ,                                       !- Zone Return Air Node Name
  ,                                       !- Primary Daylighting Control Name
  ,                                       !- Fraction of Zone Controlled by Primary Daylighting Control
  ,                                       !- Secondary Daylighting Control Name
  ,                                       !- Fraction of Zone Controlled by Secondary Daylighting Control
  ,                                       !- Illuminance Map Name
  ,                                       !- Group Rendering Name
  ,                                       !- Thermostat Name
  No;                                     !- Use Ideal Air Loads

OS:Node,
  {66e29d70-db2b-405c-9048-dcd84079fecb}, !- Handle
  Node 1,                                 !- Name
  {cba62cd4-e043-40da-b357-80d6c498d37a}, !- Inlet Port
  ;                                       !- Outlet Port

OS:Connection,
  {cba62cd4-e043-40da-b357-80d6c498d37a}, !- Handle
  {cbe9a5bb-7ecf-4098-9f70-eb998725fa9d}, !- Name
  {8bdaa2f4-7823-4dfc-ae41-c566a4c57ea3}, !- Source Object
  11,                                     !- Outlet Port
  {66e29d70-db2b-405c-9048-dcd84079fecb}, !- Target Object
  2;                                      !- Inlet Port

OS:PortList,
  {4d94178b-0bca-458a-9acf-9b71d6e30a54}, !- Handle
  Port List 1,                            !- Name
  {8bdaa2f4-7823-4dfc-ae41-c566a4c57ea3}; !- HVAC Component

OS:PortList,
  {21a24b56-8ce6-41f1-9f20-f17e16b7ce5c}, !- Handle
  Port List 2,                            !- Name
  {8bdaa2f4-7823-4dfc-ae41-c566a4c57ea3}; !- HVAC Component

OS:Sizing:Zone,
  {f2ed5a4b-663f-47d0-b578-a059f15f55c0}, !- Handle
  {8bdaa2f4-7823-4dfc-ae41-c566a4c57ea3}, !- Zone or ZoneList Name
  SupplyAirTemperature,                   !- Zone Cooling Design Supply Air Temperature Input Method
  14,                                     !- Zone Cooling Design Supply Air Temperature {C}
  11.11,                                  !- Zone Cooling Design Supply Air Temperature Difference {deltaC}
  SupplyAirTemperature,                   !- Zone Heating Design Supply Air Temperature Input Method
  40,                                     !- Zone Heating Design Supply Air Temperature {C}
  11.11,                                  !- Zone Heating Design Supply Air Temperature Difference {deltaC}
  0.0085,                                 !- Zone Cooling Design Supply Air Humidity Ratio {kg-H2O/kg-air}
  0.008,                                  !- Zone Heating Design Supply Air Humidity Ratio {kg-H2O/kg-air}
  ,                                       !- Zone Heating Sizing Factor
  ,                                       !- Zone Cooling Sizing Factor
  DesignDay,                              !- Cooling Design Air Flow Method
  ,                                       !- Cooling Design Air Flow Rate {m3/s}
  ,                                       !- Cooling Minimum Air Flow per Zone Floor Area {m3/s-m2}
  ,                                       !- Cooling Minimum Air Flow {m3/s}
  ,                                       !- Cooling Minimum Air Flow Fraction
  DesignDay,                              !- Heating Design Air Flow Method
  ,                                       !- Heating Design Air Flow Rate {m3/s}
  ,                                       !- Heating Maximum Air Flow per Zone Floor Area {m3/s-m2}
  ,                                       !- Heating Maximum Air Flow {m3/s}
  ,                                       !- Heating Maximum Air Flow Fraction
  ,                                       !- Design Zone Air Distribution Effectiveness in Cooling Mode
  ,                                       !- Design Zone Air Distribution Effectiveness in Heating Mode
  No,                                     !- Account for Dedicated Outdoor Air System
  NeutralSupplyAir,                       !- Dedicated Outdoor Air System Control Strategy
  autosize,                               !- Dedicated Outdoor Air Low Setpoint Temperature for Design {C}
  autosize;                               !- Dedicated Outdoor Air High Setpoint Temperature for Design {C}

OS:ZoneHVAC:EquipmentList,
  {3e3d487d-4ebe-4d09-9ac1-4f4aca447ccf}, !- Handle
  Zone HVAC Equipment List 1,             !- Name
  {8bdaa2f4-7823-4dfc-ae41-c566a4c57ea3}; !- Thermal Zone

OS:Space,
  {fb6bc0df-93e5-4f59-9e16-9200ad424606}, !- Handle
  living space,                           !- Name
  ,                                       !- Space Type Name
  ,                                       !- Default Construction Set Name
  ,                                       !- Default Schedule Set Name
  ,                                       !- Direction of Relative North {deg}
  ,                                       !- X Origin {m}
  ,                                       !- Y Origin {m}
  ,                                       !- Z Origin {m}
  ,                                       !- Building Story Name
  {8bdaa2f4-7823-4dfc-ae41-c566a4c57ea3}, !- Thermal Zone Name
  ,                                       !- Part of Total Floor Area
  ,                                       !- Design Specification Outdoor Air Object Name
  {02ce11b9-6296-450a-8465-6e06779880a6}; !- Building Unit Name

OS:Surface,
  {690a2cb0-15ed-4989-9f45-4f1b9c30cdbc}, !- Handle
  Surface 1,                              !- Name
  Floor,                                  !- Surface Type
  ,                                       !- Construction Name
  {fb6bc0df-93e5-4f59-9e16-9200ad424606}, !- Space Name
  Ground,                                 !- Outside Boundary Condition
  ,                                       !- Outside Boundary Condition Object
  NoSun,                                  !- Sun Exposure
  NoWind,                                 !- Wind Exposure
  ,                                       !- View Factor to Ground
  ,                                       !- Number of Vertices
  0, -12.9315688143396, 0,                !- X,Y,Z Vertex 1 {m}
  0, 0, 0,                                !- X,Y,Z Vertex 2 {m}
  6.46578440716979, 0, 0,                 !- X,Y,Z Vertex 3 {m}
  6.46578440716979, -12.9315688143396, 0; !- X,Y,Z Vertex 4 {m}

OS:Surface,
  {5cd2dec0-9a12-4408-a3da-790caf2d0409}, !- Handle
  Surface 2,                              !- Name
  Wall,                                   !- Surface Type
  ,                                       !- Construction Name
  {fb6bc0df-93e5-4f59-9e16-9200ad424606}, !- Space Name
  Outdoors,                               !- Outside Boundary Condition
  ,                                       !- Outside Boundary Condition Object
  SunExposed,                             !- Sun Exposure
  WindExposed,                            !- Wind Exposure
  ,                                       !- View Factor to Ground
  ,                                       !- Number of Vertices
  0, 0, 2.4384,                           !- X,Y,Z Vertex 1 {m}
  0, 0, 0,                                !- X,Y,Z Vertex 2 {m}
  0, -12.9315688143396, 0,                !- X,Y,Z Vertex 3 {m}
  0, -12.9315688143396, 2.4384;           !- X,Y,Z Vertex 4 {m}

OS:Surface,
  {dbc54c2a-7f59-4da7-9776-76f4ac72dd4c}, !- Handle
  Surface 3,                              !- Name
  Wall,                                   !- Surface Type
  ,                                       !- Construction Name
  {fb6bc0df-93e5-4f59-9e16-9200ad424606}, !- Space Name
  Adiabatic,                              !- Outside Boundary Condition
  ,                                       !- Outside Boundary Condition Object
  NoSun,                                  !- Sun Exposure
  NoWind,                                 !- Wind Exposure
  ,                                       !- View Factor to Ground
  ,                                       !- Number of Vertices
  6.46578440716979, 0, 2.4384,            !- X,Y,Z Vertex 1 {m}
  6.46578440716979, 0, 0,                 !- X,Y,Z Vertex 2 {m}
  0, 0, 0,                                !- X,Y,Z Vertex 3 {m}
  0, 0, 2.4384;                           !- X,Y,Z Vertex 4 {m}

OS:Surface,
  {374ffc5e-fb54-4d00-a4ec-73108c00ace2}, !- Handle
  Surface 4,                              !- Name
  Wall,                                   !- Surface Type
  ,                                       !- Construction Name
  {fb6bc0df-93e5-4f59-9e16-9200ad424606}, !- Space Name
  Surface,                                !- Outside Boundary Condition
  {1d61af21-083f-4a3c-9bba-972c34c68851}, !- Outside Boundary Condition Object
  NoSun,                                  !- Sun Exposure
  NoWind,                                 !- Wind Exposure
  ,                                       !- View Factor to Ground
  ,                                       !- Number of Vertices
  6.46578440716979, -12.9315688143396, 2.4384, !- X,Y,Z Vertex 1 {m}
  6.46578440716979, -12.9315688143396, 0, !- X,Y,Z Vertex 2 {m}
  6.46578440716979, 0, 0,                 !- X,Y,Z Vertex 3 {m}
  6.46578440716979, 0, 2.4384;            !- X,Y,Z Vertex 4 {m}

OS:Surface,
  {dd4a96e7-2b19-4747-9456-f466299940b8}, !- Handle
  Surface 5,                              !- Name
  Wall,                                   !- Surface Type
  ,                                       !- Construction Name
  {fb6bc0df-93e5-4f59-9e16-9200ad424606}, !- Space Name
  Outdoors,                               !- Outside Boundary Condition
  ,                                       !- Outside Boundary Condition Object
  SunExposed,                             !- Sun Exposure
  WindExposed,                            !- Wind Exposure
  ,                                       !- View Factor to Ground
  ,                                       !- Number of Vertices
  0, -12.9315688143396, 2.4384,           !- X,Y,Z Vertex 1 {m}
  0, -12.9315688143396, 0,                !- X,Y,Z Vertex 2 {m}
  6.46578440716979, -12.9315688143396, 0, !- X,Y,Z Vertex 3 {m}
  6.46578440716979, -12.9315688143396, 2.4384; !- X,Y,Z Vertex 4 {m}

OS:Surface,
  {ed8e4f00-b56a-46a2-a1c9-fd488e677c02}, !- Handle
  Surface 6,                              !- Name
  RoofCeiling,                            !- Surface Type
  ,                                       !- Construction Name
  {fb6bc0df-93e5-4f59-9e16-9200ad424606}, !- Space Name
  Outdoors,                               !- Outside Boundary Condition
  ,                                       !- Outside Boundary Condition Object
  SunExposed,                             !- Sun Exposure
  WindExposed,                            !- Wind Exposure
  ,                                       !- View Factor to Ground
  ,                                       !- Number of Vertices
  6.46578440716979, -12.9315688143396, 2.4384, !- X,Y,Z Vertex 1 {m}
  6.46578440716979, 0, 2.4384,            !- X,Y,Z Vertex 2 {m}
  0, 0, 2.4384,                           !- X,Y,Z Vertex 3 {m}
  0, -12.9315688143396, 2.4384;           !- X,Y,Z Vertex 4 {m}

OS:ThermalZone,
  {9be3818c-bbca-4cef-8671-d0353775f115}, !- Handle
  living zone|unit 2,                     !- Name
  ,                                       !- Multiplier
  ,                                       !- Ceiling Height {m}
  ,                                       !- Volume {m3}
  ,                                       !- Floor Area {m2}
  ,                                       !- Zone Inside Convection Algorithm
  ,                                       !- Zone Outside Convection Algorithm
  ,                                       !- Zone Conditioning Equipment List Name
  {bbcebbdc-08bc-46af-9a9b-dee1a98877e5}, !- Zone Air Inlet Port List
  {3818b86c-5fbf-48a3-9512-f2da71dbd9db}, !- Zone Air Exhaust Port List
  {11b06290-4dcf-42e6-bdef-e2a4673b330b}, !- Zone Air Node Name
  ,                                       !- Zone Return Air Node Name
  ,                                       !- Primary Daylighting Control Name
  ,                                       !- Fraction of Zone Controlled by Primary Daylighting Control
  ,                                       !- Secondary Daylighting Control Name
  ,                                       !- Fraction of Zone Controlled by Secondary Daylighting Control
  ,                                       !- Illuminance Map Name
  ,                                       !- Group Rendering Name
  ,                                       !- Thermostat Name
  No;                                     !- Use Ideal Air Loads

OS:Node,
  {60a2ea35-d73e-4092-9faf-6362fc6b0844}, !- Handle
  Node 2,                                 !- Name
  {11b06290-4dcf-42e6-bdef-e2a4673b330b}, !- Inlet Port
  ;                                       !- Outlet Port

OS:Connection,
  {11b06290-4dcf-42e6-bdef-e2a4673b330b}, !- Handle
  {34cfa060-3623-4a21-8b96-c22648e34af5}, !- Name
  {9be3818c-bbca-4cef-8671-d0353775f115}, !- Source Object
  11,                                     !- Outlet Port
  {60a2ea35-d73e-4092-9faf-6362fc6b0844}, !- Target Object
  2;                                      !- Inlet Port

OS:PortList,
  {bbcebbdc-08bc-46af-9a9b-dee1a98877e5}, !- Handle
  Port List 3,                            !- Name
  {9be3818c-bbca-4cef-8671-d0353775f115}; !- HVAC Component

OS:PortList,
  {3818b86c-5fbf-48a3-9512-f2da71dbd9db}, !- Handle
  Port List 4,                            !- Name
  {9be3818c-bbca-4cef-8671-d0353775f115}; !- HVAC Component

OS:Sizing:Zone,
  {1a28f18d-4a9c-405e-a376-9ff5009c0b5f}, !- Handle
  {9be3818c-bbca-4cef-8671-d0353775f115}, !- Zone or ZoneList Name
  SupplyAirTemperature,                   !- Zone Cooling Design Supply Air Temperature Input Method
  14,                                     !- Zone Cooling Design Supply Air Temperature {C}
  11.11,                                  !- Zone Cooling Design Supply Air Temperature Difference {deltaC}
  SupplyAirTemperature,                   !- Zone Heating Design Supply Air Temperature Input Method
  40,                                     !- Zone Heating Design Supply Air Temperature {C}
  11.11,                                  !- Zone Heating Design Supply Air Temperature Difference {deltaC}
  0.0085,                                 !- Zone Cooling Design Supply Air Humidity Ratio {kg-H2O/kg-air}
  0.008,                                  !- Zone Heating Design Supply Air Humidity Ratio {kg-H2O/kg-air}
  ,                                       !- Zone Heating Sizing Factor
  ,                                       !- Zone Cooling Sizing Factor
  DesignDay,                              !- Cooling Design Air Flow Method
  ,                                       !- Cooling Design Air Flow Rate {m3/s}
  ,                                       !- Cooling Minimum Air Flow per Zone Floor Area {m3/s-m2}
  ,                                       !- Cooling Minimum Air Flow {m3/s}
  ,                                       !- Cooling Minimum Air Flow Fraction
  DesignDay,                              !- Heating Design Air Flow Method
  ,                                       !- Heating Design Air Flow Rate {m3/s}
  ,                                       !- Heating Maximum Air Flow per Zone Floor Area {m3/s-m2}
  ,                                       !- Heating Maximum Air Flow {m3/s}
  ,                                       !- Heating Maximum Air Flow Fraction
  ,                                       !- Design Zone Air Distribution Effectiveness in Cooling Mode
  ,                                       !- Design Zone Air Distribution Effectiveness in Heating Mode
  No,                                     !- Account for Dedicated Outdoor Air System
  NeutralSupplyAir,                       !- Dedicated Outdoor Air System Control Strategy
  autosize,                               !- Dedicated Outdoor Air Low Setpoint Temperature for Design {C}
  autosize;                               !- Dedicated Outdoor Air High Setpoint Temperature for Design {C}

OS:ZoneHVAC:EquipmentList,
  {006dee6c-be51-4ded-9b09-b6f3d0059d37}, !- Handle
  Zone HVAC Equipment List 2,             !- Name
  {9be3818c-bbca-4cef-8671-d0353775f115}; !- Thermal Zone

OS:Space,
  {f3038fa3-ad6d-42d0-b935-a3d3a792f823}, !- Handle
  living space|unit 2,                    !- Name
  ,                                       !- Space Type Name
  ,                                       !- Default Construction Set Name
  ,                                       !- Default Schedule Set Name
  ,                                       !- Direction of Relative North {deg}
  ,                                       !- X Origin {m}
  ,                                       !- Y Origin {m}
  ,                                       !- Z Origin {m}
  ,                                       !- Building Story Name
  {9be3818c-bbca-4cef-8671-d0353775f115}, !- Thermal Zone Name
  ,                                       !- Part of Total Floor Area
  ,                                       !- Design Specification Outdoor Air Object Name
  {f036de9f-37d8-4ec1-abea-b0cb3295fa2f}; !- Building Unit Name

OS:Surface,
  {3377dcf9-d76a-4ce6-afa2-4462769c5a6d}, !- Handle
  Surface 7,                              !- Name
  Floor,                                  !- Surface Type
  ,                                       !- Construction Name
  {f3038fa3-ad6d-42d0-b935-a3d3a792f823}, !- Space Name
  Ground,                                 !- Outside Boundary Condition
  ,                                       !- Outside Boundary Condition Object
  NoSun,                                  !- Sun Exposure
  NoWind,                                 !- Wind Exposure
  ,                                       !- View Factor to Ground
  ,                                       !- Number of Vertices
  0, 3.048, 0,                            !- X,Y,Z Vertex 1 {m}
  0, 15.9795688143396, 0,                 !- X,Y,Z Vertex 2 {m}
  6.46578440716979, 15.9795688143396, 0,  !- X,Y,Z Vertex 3 {m}
  6.46578440716979, 3.048, 0;             !- X,Y,Z Vertex 4 {m}

OS:Surface,
  {18dcdb31-4e45-46b9-95f5-a10320b1fa4c}, !- Handle
  Surface 8,                              !- Name
  Wall,                                   !- Surface Type
  ,                                       !- Construction Name
  {f3038fa3-ad6d-42d0-b935-a3d3a792f823}, !- Space Name
  Outdoors,                               !- Outside Boundary Condition
  ,                                       !- Outside Boundary Condition Object
  SunExposed,                             !- Sun Exposure
  WindExposed,                            !- Wind Exposure
  ,                                       !- View Factor to Ground
  ,                                       !- Number of Vertices
  0, 15.9795688143396, 2.4384,            !- X,Y,Z Vertex 1 {m}
  0, 15.9795688143396, 0,                 !- X,Y,Z Vertex 2 {m}
  0, 3.048, 0,                            !- X,Y,Z Vertex 3 {m}
  0, 3.048, 2.4384;                       !- X,Y,Z Vertex 4 {m}

OS:Surface,
  {9b40d96e-d0d6-4d70-87f6-8e61502d5e05}, !- Handle
  Surface 9,                              !- Name
  Wall,                                   !- Surface Type
  ,                                       !- Construction Name
  {f3038fa3-ad6d-42d0-b935-a3d3a792f823}, !- Space Name
  Outdoors,                               !- Outside Boundary Condition
  ,                                       !- Outside Boundary Condition Object
  SunExposed,                             !- Sun Exposure
  WindExposed,                            !- Wind Exposure
  ,                                       !- View Factor to Ground
  ,                                       !- Number of Vertices
  6.46578440716979, 15.9795688143396, 2.4384, !- X,Y,Z Vertex 1 {m}
  6.46578440716979, 15.9795688143396, 0,  !- X,Y,Z Vertex 2 {m}
  0, 15.9795688143396, 0,                 !- X,Y,Z Vertex 3 {m}
  0, 15.9795688143396, 2.4384;            !- X,Y,Z Vertex 4 {m}

OS:Surface,
  {4f6ed602-6b3f-4da8-8f6d-ff931060b4e8}, !- Handle
  Surface 10,                             !- Name
  Wall,                                   !- Surface Type
  ,                                       !- Construction Name
  {f3038fa3-ad6d-42d0-b935-a3d3a792f823}, !- Space Name
  Surface,                                !- Outside Boundary Condition
  {7f0a6180-16b3-4e80-9481-2eb5d8ea4418}, !- Outside Boundary Condition Object
  NoSun,                                  !- Sun Exposure
  NoWind,                                 !- Wind Exposure
  ,                                       !- View Factor to Ground
  ,                                       !- Number of Vertices
  6.46578440716979, 3.048, 2.4384,        !- X,Y,Z Vertex 1 {m}
  6.46578440716979, 3.048, 0,             !- X,Y,Z Vertex 2 {m}
  6.46578440716979, 15.9795688143396, 0,  !- X,Y,Z Vertex 3 {m}
  6.46578440716979, 15.9795688143396, 2.4384; !- X,Y,Z Vertex 4 {m}

OS:Surface,
  {4426cbd5-ba35-4ae3-b8b3-41c3e38c1638}, !- Handle
  Surface 11,                             !- Name
  Wall,                                   !- Surface Type
  ,                                       !- Construction Name
  {f3038fa3-ad6d-42d0-b935-a3d3a792f823}, !- Space Name
  Adiabatic,                              !- Outside Boundary Condition
  ,                                       !- Outside Boundary Condition Object
  NoSun,                                  !- Sun Exposure
  NoWind,                                 !- Wind Exposure
  ,                                       !- View Factor to Ground
  ,                                       !- Number of Vertices
  0, 3.048, 2.4384,                       !- X,Y,Z Vertex 1 {m}
  0, 3.048, 0,                            !- X,Y,Z Vertex 2 {m}
  6.46578440716979, 3.048, 0,             !- X,Y,Z Vertex 3 {m}
  6.46578440716979, 3.048, 2.4384;        !- X,Y,Z Vertex 4 {m}

OS:Surface,
  {61a8428e-fa01-4d4c-bbe3-875f0aa80798}, !- Handle
  Surface 12,                             !- Name
  RoofCeiling,                            !- Surface Type
  ,                                       !- Construction Name
  {f3038fa3-ad6d-42d0-b935-a3d3a792f823}, !- Space Name
  Outdoors,                               !- Outside Boundary Condition
  ,                                       !- Outside Boundary Condition Object
  SunExposed,                             !- Sun Exposure
  WindExposed,                            !- Wind Exposure
  ,                                       !- View Factor to Ground
  ,                                       !- Number of Vertices
  6.46578440716979, 3.048, 2.4384,        !- X,Y,Z Vertex 1 {m}
  6.46578440716979, 15.9795688143396, 2.4384, !- X,Y,Z Vertex 2 {m}
  0, 15.9795688143396, 2.4384,            !- X,Y,Z Vertex 3 {m}
  0, 3.048, 2.4384;                       !- X,Y,Z Vertex 4 {m}

OS:ThermalZone,
  {64d1845a-a9b4-48e6-b67c-07ac810c8a53}, !- Handle
  living zone|unit 3,                     !- Name
  ,                                       !- Multiplier
  ,                                       !- Ceiling Height {m}
  ,                                       !- Volume {m3}
  ,                                       !- Floor Area {m2}
  ,                                       !- Zone Inside Convection Algorithm
  ,                                       !- Zone Outside Convection Algorithm
  ,                                       !- Zone Conditioning Equipment List Name
  {86d67e36-0822-485f-bd63-05d80b9a2db6}, !- Zone Air Inlet Port List
  {c84d035a-0c84-4c97-8f44-ec48c37bf86b}, !- Zone Air Exhaust Port List
  {7b9fdcc3-aebf-4b1b-9029-4d4b9fa5aaf7}, !- Zone Air Node Name
  ,                                       !- Zone Return Air Node Name
  ,                                       !- Primary Daylighting Control Name
  ,                                       !- Fraction of Zone Controlled by Primary Daylighting Control
  ,                                       !- Secondary Daylighting Control Name
  ,                                       !- Fraction of Zone Controlled by Secondary Daylighting Control
  ,                                       !- Illuminance Map Name
  ,                                       !- Group Rendering Name
  ,                                       !- Thermostat Name
  No;                                     !- Use Ideal Air Loads

OS:Node,
  {d1c5193a-06df-428e-94db-6dddd8e38e02}, !- Handle
  Node 3,                                 !- Name
  {7b9fdcc3-aebf-4b1b-9029-4d4b9fa5aaf7}, !- Inlet Port
  ;                                       !- Outlet Port

OS:Connection,
  {7b9fdcc3-aebf-4b1b-9029-4d4b9fa5aaf7}, !- Handle
  {0b21f315-c3bc-47b0-bd5d-c118a88a7d6d}, !- Name
  {64d1845a-a9b4-48e6-b67c-07ac810c8a53}, !- Source Object
  11,                                     !- Outlet Port
  {d1c5193a-06df-428e-94db-6dddd8e38e02}, !- Target Object
  2;                                      !- Inlet Port

OS:PortList,
  {86d67e36-0822-485f-bd63-05d80b9a2db6}, !- Handle
  Port List 5,                            !- Name
  {64d1845a-a9b4-48e6-b67c-07ac810c8a53}; !- HVAC Component

OS:PortList,
  {c84d035a-0c84-4c97-8f44-ec48c37bf86b}, !- Handle
  Port List 6,                            !- Name
  {64d1845a-a9b4-48e6-b67c-07ac810c8a53}; !- HVAC Component

OS:Sizing:Zone,
  {8cbb5567-7ca4-448f-bf56-ae7cec38a883}, !- Handle
  {64d1845a-a9b4-48e6-b67c-07ac810c8a53}, !- Zone or ZoneList Name