
OS:Version,
  {7a011854-5713-4277-a7b7-959eac54709e}, !- Handle
  1.3.1;                                  !- Version Identifier

OS:Construction,
  {ac698ee7-3f40-49a6-874e-f0c26a59ebd6}, !- Handle
  ExtInsFinWall,                          !- Name
  ,                                       !- Surface Rendering Name
  {5627a08d-1956-423b-8014-0b13db174703}, !- Layer 1
  {94feccd6-4fe0-4751-ab79-7846048da3f7}, !- Layer 2
  {9711e919-3cec-4b97-8c2b-cc4619a4ad22}, !- Layer 3
  {0c5b80d1-76b2-4a0b-b000-f3ab190a6e85}; !- Layer 4

OS:Material,
  {5627a08d-1956-423b-8014-0b13db174703}, !- Handle
  Exterior_Finish_Vinyl_Light,            !- Name
  Rough,                                  !- Roughness
  0.009525,                               !- Thickness {m}
  0.089435,                               !- Conductivity {W/m-K}
  177.822,                                !- Density {kg/m3}
  1046.75,                                !- Specific Heat {J/kg-K}
  0.9,                                    !- Thermal Absorptance
  0.3,                                    !- Solar Absorptance
  0.3;                                    !- Visible Absorptance

OS:Material,
  {94feccd6-4fe0-4751-ab79-7846048da3f7}, !- Handle
  Plywood_1_2in,                          !- Name
  Rough,                                  !- Roughness
  0.0127,                                 !- Thickness {m}
  0.1154577,                              !- Conductivity {W/m-K}
  512.64,                                 !- Density {kg/m3}
  1214.23;                                !- Specific Heat {J/kg-K}

OS:Material,
  {0c5b80d1-76b2-4a0b-b000-f3ab190a6e85}, !- Handle
  GypsumBoard_1_2in,                      !- Name
  Rough,                                  !- Roughness
  0.0127,                                 !- Thickness {m}
  0.1602906,                              !- Conductivity {W/m-K}
  801,                                    !- Density {kg/m3}
  837.4;                                  !- Specific Heat {J/kg-K}

OS:Material,
  {9711e919-3cec-4b97-8c2b-cc4619a4ad22}, !- Handle
  StudandCavity,                          !- Name
  Rough,                                  !- Roughness
  0.1397,                                 !- Thickness {m}
  0.0388949540951877,                     !- Conductivity {W/m-K}
  148.39326,                              !- Density {kg/m3}
  1174.03696966425;                       !- Specific Heat {J/kg-K}

