
OS:Version,
  {631ff2bb-fe7d-4345-9e08-e7e9de92724b}, !- Handle
  1.3.1;                                  !- Version Identifier

OS:Construction,
  {ab0045af-d0a1-4a98-8689-27c7caee1537}, !- Handle
  Triple-Pane Low-Gain Low-E Non-metal Frame Air Fill, !- Name
  ,                                       !- Surface Rendering Name
  {be686075-0e73-4da7-b4ef-d3c183027810}; !- Layer 1

OS:WindowMaterial:SimpleGlazingSystem,
  {be686075-0e73-4da7-b4ef-d3c183027810}, !- Handle
  Triple-Pane Glass,                      !- Name
  1.63699550828656,                       !- U-Factor {W/m2-K}
  0.260862002072861;                      !- Solar Heat Gain Coefficient

OS:StandardsInformation:Construction,
  {98dfc4dd-9564-4742-84a5-78fa118fb432}, !- Handle
  {ab0045af-d0a1-4a98-8689-27c7caee1537}, !- Construction Name
  ExteriorWindow;                         !- Intended Surface Type

OS:ComponentData,
  {a77ba49e-8da8-49c2-8e64-24f3963ab7b9}, !- Handle
  Component Data 1,                       !- Name
  {964cac3f-41fb-4b90-b7bf-177c7148acf8}, !- UUID
  {a637a6f4-ae5f-4937-9bc9-64c6baf89fa4}, !- Version UUID
  1406055301,                             !- Creation Timestamp
  1406055301,                             !- Version Timestamp
  {ab0045af-d0a1-4a98-8689-27c7caee1537}, !- Name of Object 1
  {be686075-0e73-4da7-b4ef-d3c183027810}, !- Name of Object 2
  {98dfc4dd-9564-4742-84a5-78fa118fb432}; !- Name of Object 3

