
OS:Version,
  {8d3b2437-9a08-48d0-9df6-02aaca9ca446}, !- Handle
  1.3.1;                                  !- Version Identifier

OS:Material,
  {3b04484d-1318-469e-bd7a-44c92b58b150}, !- Handle
  2x4,                                    !- Name
  Rough,                                  !- Roughness
  0.0889,                                 !- Thickness {m}
  0.1154577,                              !- Conductivity {W/m-K}
  512.64,                                 !- Density {kg/m3}
  1214.23;                                !- Specific Heat {J/kg-K}

