
OS:Version,
  {61bbbea2-25ed-4fc6-be91-8ef5bc8958e3}, !- Handle
  1.3.1;                                  !- Version Identifier

OS:Material,
  {d6a2d385-5052-485f-bdb0-f3842d1a569a}, !- Handle
  2x6,                                    !- Name
  Rough,                                  !- Roughness
  0.1397,                                 !- Thickness {m}
  0.1154577,                              !- Conductivity {W/m-K}
  512.64,                                 !- Density {kg/m3}
  1214.23;                                !- Specific Heat {J/kg-K}

