
OS:Version,
  {5b54f93d-6c2e-4d73-8ef5-ac1b6304763f}, !- Handle
  1.3.1;                                  !- Version Identifier

OS:Material,
  {1758d297-3914-418e-a004-a15fa9ef48ac}, !- Handle
  CarpetBareLayer,                        !- Name
  Rough,                                  !- Roughness
  0.0127,                                 !- Thickness {m}
  0.173377403846153,                      !- Conductivity {W/m-K}
  54.4679999999999,                       !- Density {kg/m3}
  1339.84;                                !- Specific Heat {J/kg-K}

