
OS:Version,
  {af1c5a5a-4aa4-43fd-8c92-8fb8ef1ce1fd}, !- Handle
  1.3.1;                                  !- Version Identifier

OS:Material,
  {c44f9faa-9778-4fce-ab84-a925fb83c04a}, !- Handle
  CarpetBareLayer,                        !- Name
  Rough,                                  !- Roughness
  0.0127,                                 !- Thickness {m}
  0.0866887019230769,                     !- Conductivity {W/m-K}
  54.4679999999999,                       !- Density {kg/m3}
  1339.84;                                !- Specific Heat {J/kg-K}

