
OS:Version,
  {3f76a03f-be0e-4d60-a324-fcb87ebff19c}, !- Handle
  1.3.1;                                  !- Version Identifier

OS:Material,
  {1b6524b1-ee4d-4854-b337-d334f46202a4}, !- Handle
  Cavity,                                 !- Name
  Rough,                                  !- Roughness
  0.0889,                                 !- Thickness {m}
  0.0509043714038462,                     !- Conductivity {W/m-K}
  119.206822499999,                       !- Density {kg/m3}
  1160.18704077004;                       !- Specific Heat {J/kg-K}

