
OS:Version,
  {091ab47b-7e0d-4a69-b0b0-b838b545855f}, !- Handle
  1.3.1;                                  !- Version Identifier

OS:Material,
  {a8c49598-3486-42b0-8cbc-0e7738b77d18}, !- Handle
  Cavity,                                 !- Name
  Rough,                                  !- Roughness
  0.0889,                                 !- Thickness {m}
  0.0509043714038462,                     !- Conductivity {W/m-K}
  119.206822499999,                       !- Density {kg/m3}
  1160.18704077004;                       !- Specific Heat {J/kg-K}

