
OS:Version,
  {af801525-ebad-4c7e-a83b-a385b40733c7}, !- Handle
  1.3.1;                                  !- Version Identifier

OS:Material,
  {2f58631b-0c7b-4c80-9ec7-ba2430869947}, !- Handle
  Cavity,                                 !- Name
  Rough,                                  !- Roughness
  0.0889,                                 !- Thickness {m}
  0.0465417335833333,                     !- Conductivity {W/m-K}
  119.206822499999,                       !- Density {kg/m3}
  1160.18704077004;                       !- Specific Heat {J/kg-K}

