
OS:Version,
  {3b89a247-aca0-425f-a3f3-2bb62ff2bdda}, !- Handle
  1.3.1;                                  !- Version Identifier

OS:Material,
  {ce8d7354-df0d-4528-8acd-a078bcfe3f75}, !- Handle
  Cavity,                                 !- Name
  Rough,                                  !- Roughness
  0.0889,                                 !- Thickness {m}
  0.0509043714038462,                     !- Conductivity {W/m-K}
  119.206822499999,                       !- Density {kg/m3}
  1160.18704077004;                       !- Specific Heat {J/kg-K}

