
OS:Version,
  {58581f6f-f57b-4eae-83ec-c1e221067070}, !- Handle
  1.3.1;                                  !- Version Identifier

OS:Material,
  {f0f443f1-6628-4506-b7c3-44c95685c1a1}, !- Handle
  Cavity,                                 !- Name
  Rough,                                  !- Roughness
  0.0889,                                 !- Thickness {m}
  0.0465417335833333,                     !- Conductivity {W/m-K}
  119.206822499999,                       !- Density {kg/m3}
  1160.18704077004;                       !- Specific Heat {J/kg-K}

