
OS:Version,
  {f6322ba8-071d-4e6e-b3f2-8dbed3b74bb5}, !- Handle
  1.3.1;                                  !- Version Identifier

OS:Material,
  {162e2c0b-2d8f-4382-ac1a-b68443f5f6a9}, !- Handle
  Cavity,                                 !- Name
  Rough,                                  !- Roughness
  0.0889,                                 !- Thickness {m}
  0.0568534229772727,                     !- Conductivity {W/m-K}
  119.206822499999,                       !- Density {kg/m3}
  1160.18704077004;                       !- Specific Heat {J/kg-K}

