
OS:Version,
  {521ad31c-cded-4048-bd1b-3e9d624a1948}, !- Handle
  1.3.1;                                  !- Version Identifier

OS:Material,
  {6777b4f1-c8c2-48de-8ca2-b61a4632f21c}, !- Handle
  Cavity,                                 !- Name
  Rough,                                  !- Roughness
  0.0889,                                 !- Thickness {m}
  0.0509043714038462,                     !- Conductivity {W/m-K}
  119.206822499999,                       !- Density {kg/m3}
  1160.18704077004;                       !- Specific Heat {J/kg-K}

