
OS:Version,
  {406adf16-09bc-4f34-979d-28d788b1d8b5}, !- Handle
  1.3.1;                                  !- Version Identifier

OS:Material,
  {55084fe2-66e2-487d-a558-b37a4ac8c219}, !- Handle
  Cavity,                                 !- Name
  Rough,                                  !- Roughness
  0.0889,                                 !- Thickness {m}
  0.0568534229772727,                     !- Conductivity {W/m-K}
  119.206822499999,                       !- Density {kg/m3}
  1160.18704077004;                       !- Specific Heat {J/kg-K}

