
OS:Version,
  {7538ada0-2569-4f74-bef5-89749ed75d99}, !- Handle
  1.3.1;                                  !- Version Identifier

OS:Material,
  {efb1b100-6b72-46cb-abb5-5c281f535445}, !- Handle
  Cavity,                                 !- Name
  Rough,                                  !- Roughness
  0.0889,                                 !- Thickness {m}
  0.0465417335833333,                     !- Conductivity {W/m-K}
  119.206822499999,                       !- Density {kg/m3}
  1160.18704077004;                       !- Specific Heat {J/kg-K}

