
OS:Version,
  {fb636c75-bdf9-4eef-a210-764e05bb32d3}, !- Handle
  1.3.1;                                  !- Version Identifier

OS:Material:NoMass,
  {9265a541-5757-45c5-9cd3-370de98e41df}, !- Handle
  CFloor_FicR_Wall_R_20_XPS,              !- Name
  Rough,                                  !- Roughness
  4.51788207676513;                       !- Thermal Resistance {m2-K/W}

