
OS:Version,
  {9e6209ef-9093-4d26-ae53-6ba74d69c36b}, !- Handle
  1.3.1;                                  !- Version Identifier

OS:Material:NoMass,
  {bb69a3d1-d559-48db-8b4c-da1b0a885063}, !- Handle
  CFloor_FicR_Wall_R_13_Fiberglass_Batt,  !- Name
  Rough,                                  !- Roughness
  4.84402075169421;                       !- Thermal Resistance {m2-K/W}

