
OS:Version,
  {017b4e8f-8137-4a4c-8f18-ce185c1901e0}, !- Handle
  1.3.1;                                  !- Version Identifier

OS:Material:NoMass,
  {a0aff2eb-eac3-4234-9519-2bd1aa4b905a}, !- Handle
  CFloor_FicR_Ceiling_R_19_Fiberglass_Batt, !- Name
  Rough,                                  !- Roughness
  176.1;                                  !- Thermal Resistance {m2-K/W}

