
OS:Version,
  {dd70c105-0c63-4176-8923-6657eeeef9cc}, !- Handle
  1.3.1;                                  !- Version Identifier

OS:Material:NoMass,
  {c16dd349-33e5-460b-8b73-2801285b2ee3}, !- Handle
  CFloor_FicR_Wall_R_18_Polyiso,          !- Name
  Rough,                                  !- Roughness
  4.5675552826089;                        !- Thermal Resistance {m2-K/W}

