
OS:Version,
  {92053542-e6d6-4756-81a8-d682b507bff5}, !- Handle
  1.3.1;                                  !- Version Identifier

OS:Material:NoMass,
  {888d859c-9949-44d3-8c7d-bc37d634e5d5}, !- Handle
  CFloor_FicR_Wall_R_11_Fiberglass_Batt,  !- Name
  Rough,                                  !- Roughness
  5.08138058423134;                       !- Thermal Resistance {m2-K/W}

