
OS:Version,
  {38869d05-6a53-4aa8-b39e-a570ff84cb4c}, !- Handle
  1.3.1;                                  !- Version Identifier

OS:Material:NoMass,
  {b477934d-6dd9-4926-802b-bb1319f2679b}, !- Handle
  CFloor_FicR_Ceiling_R_13_Fiberglass_Batt, !- Name
  Rough,                                  !- Roughness
  176.1;                                  !- Thermal Resistance {m2-K/W}

