
OS:Version,
  {b62f15a7-e237-449b-9469-6a2753ec33ad}, !- Handle
  1.3.1;                                  !- Version Identifier

OS:Material:NoMass,
  {9e36e065-6734-4c12-98ac-6801f8df74a3}, !- Handle
  CFloor_FicR_Ceiling_R_19_Closed_Cell_Spray_Foam, !- Name
  Rough,                                  !- Roughness
  176.1;                                  !- Thermal Resistance {m2-K/W}

