
OS:Version,
  {66ebdd4c-d1ff-452e-8a1d-88a92496a140}, !- Handle
  1.3.1;                                  !- Version Identifier

OS:Material:NoMass,
  {a6f84c72-dff1-40bb-a822-93627ec82125}, !- Handle
  CFloor_FicR_Ceiling_R_38_Closed_Cell_Spray_Foam, !- Name
  Rough,                                  !- Roughness
  176.1;                                  !- Thermal Resistance {m2-K/W}

