
OS:Version,
  {a9f2d61e-911a-4a9c-ab11-763653b4ac75}, !- Handle
  1.3.1;                                  !- Version Identifier

OS:Material:NoMass,
  {be24772f-2a8b-4770-bd27-6482d9822096}, !- Handle
  CFloor_FicR_Ceiling_R_13_Closed_Cell_Spray_Foam, !- Name
  Rough,                                  !- Roughness
  176.1;                                  !- Thermal Resistance {m2-K/W}

