
OS:Version,
  {ed3bdffe-4b40-4920-903a-ae438a65fcaa}, !- Handle
  1.3.1;                                  !- Version Identifier

OS:Material:NoMass,
  {9f33df1a-a8e8-4d0c-b6b4-4a91be235087}, !- Handle
  CFloor_FicR_Ceiling_R_30_Closed_Cell_Spray_Foam, !- Name
  Rough,                                  !- Roughness
  176.1;                                  !- Thermal Resistance {m2-K/W}

