
OS:Version,
  {f3bf56fc-6b9b-4c8a-8778-b2e1c252df94}, !- Handle
  1.3.1;                                  !- Version Identifier

OS:Material,
  {d13d78c2-b68e-4303-afc3-6cd2d1fa2250}, !- Handle
  CMU,                                    !- Name
  Rough,                                  !- Roughness
  0.1524,                                 !- Thickness {m}
  0.203518103234586,                      !- Conductivity {W/m-K}
  1001.12184,                             !- Density {kg/m3}
  852.065086091019;                       !- Specific Heat {J/kg-K}

