
OS:Version,
  {d4dc71a4-42df-4c3e-8f61-926d0b799267}, !- Handle
  1.3.1;                                  !- Version Identifier

OS:Material,
  {c230c979-17e3-4d68-b4ae-5013c02d8486}, !- Handle
  CMU,                                    !- Name
  Rough,                                  !- Roughness
  0.1524,                                 !- Thickness {m}
  0.538472282078088,                      !- Conductivity {W/m-K}
  1001.12184,                             !- Density {kg/m3}
  852.065086091019;                       !- Specific Heat {J/kg-K}

