
OS:Version,
  {d834f81e-2560-47bf-bf96-c194652a7132}, !- Handle
  1.3.1;                                  !- Version Identifier

OS:Material,
  {382c5b5f-2ef7-452e-b1a1-2dd6a960fc6e}, !- Handle
  CMU,                                    !- Name
  Rough,                                  !- Roughness
  0.2032,                                 !- Thickness {m}
  0.226062261074525,                      !- Conductivity {W/m-K}
  705.07224,                              !- Density {kg/m3}
  858.222742888303;                       !- Specific Heat {J/kg-K}

