
OS:Version,
  {3d05b4ad-bfef-4529-88db-523ce898fb26}, !- Handle
  1.3.1;                                  !- Version Identifier

OS:Material,
  {893b16af-3f91-493b-80ba-40e432940a21}, !- Handle
  CMU,                                    !- Name
  Rough,                                  !- Roughness
  0.1524,                                 !- Thickness {m}
  0.143523570076768,                      !- Conductivity {W/m-K}
  1030.7268,                              !- Density {kg/m3}
  851.643869443581;                       !- Specific Heat {J/kg-K}

