
OS:Version,
  {6650e17d-8167-462f-a51d-dbfad4a19503}, !- Handle
  1.3.1;                                  !- Version Identifier

OS:Material,
  {b3bdd767-3fbc-404d-b314-0647e830d575}, !- Handle
  CMU,                                    !- Name
  Rough,                                  !- Roughness
  0.2032,                                 !- Thickness {m}
  0.293124478705938,                      !- Conductivity {W/m-K}
  705.07224,                              !- Density {kg/m3}
  858.222742888303;                       !- Specific Heat {J/kg-K}

