
OS:Version,
  {2516a448-53e6-405e-93fb-add495632b88}, !- Handle
  1.3.1;                                  !- Version Identifier

OS:Material,
  {ae560af0-3278-4433-b39d-e8bbdfb3fc62}, !- Handle
  CMU,                                    !- Name
  Rough,                                  !- Roughness
  0.2032,                                 !- Thickness {m}
  0.284117053906069,                      !- Conductivity {W/m-K}
  705.07224,                              !- Density {kg/m3}
  858.222742888303;                       !- Specific Heat {J/kg-K}

