
OS:Version,
  {727d8a6b-a3b7-463e-bfd5-1ed11bb0e532}, !- Handle
  1.3.1;                                  !- Version Identifier

OS:Material,
  {005bc3b5-9907-41b6-a0cd-209a8edcd5e9}, !- Handle
  CMU,                                    !- Name
  Rough,                                  !- Roughness
  0.1524,                                 !- Thickness {m}
  0.649933814019447,                      !- Conductivity {W/m-K}
  1800.45576,                             !- Density {kg/m3}
  845.554345303769;                       !- Specific Heat {J/kg-K}

