
OS:Version,
  {757bc79f-353c-4560-9365-f196d592d6a2}, !- Handle
  1.3.1;                                  !- Version Identifier

OS:Material,
  {428f5276-9de9-4e1b-86ea-725092d6f0d8}, !- Handle
  CMU,                                    !- Name
  Rough,                                  !- Roughness
  0.1524,                                 !- Thickness {m}
  0.26323141069154,                       !- Conductivity {W/m-K}
  1001.12184,                             !- Density {kg/m3}
  852.065086091019;                       !- Specific Heat {J/kg-K}

