
OS:Version,
  {de34b38d-e891-47d4-a59a-cabcc82fe05f}, !- Handle
  1.3.1;                                  !- Version Identifier

OS:Material,
  {f6e80090-786e-4828-a00f-0bd54e10dbd3}, !- Handle
  CMU,                                    !- Name
  Rough,                                  !- Roughness
  0.1524,                                 !- Thickness {m}
  0.22061224739539,                       !- Conductivity {W/m-K}
  1001.12184,                             !- Density {kg/m3}
  852.065086091019;                       !- Specific Heat {J/kg-K}

