
OS:Version,
  {cf20a0da-e950-48ba-9c1f-a6225ef2cf49}, !- Handle
  1.3.1;                                  !- Version Identifier

OS:Material,
  {6a9e08bf-38ed-4bc7-bb02-9d7ebcef5182}, !- Handle
  CMU,                                    !- Name
  Rough,                                  !- Roughness
  0.3048,                                 !- Thickness {m}
  0.671158298181782,                      !- Conductivity {W/m-K}
  764.28216,                              !- Density {kg/m3}
  856.609578267795;                       !- Specific Heat {J/kg-K}

