
OS:Version,
  {34f6f564-59dc-4b1b-9a70-6b731ff17d41}, !- Handle
  1.3.1;                                  !- Version Identifier

OS:Material,
  {5bd75d09-8451-40e6-8a01-02c321c1953b}, !- Handle
  CMU,                                    !- Name
  Rough,                                  !- Roughness
  0.3048,                                 !- Thickness {m}
  0.378159830829798,                      !- Conductivity {W/m-K}
  764.28216,                              !- Density {kg/m3}
  856.609578267795;                       !- Specific Heat {J/kg-K}

