
OS:Version,
  {ebdd9d0a-7420-469c-bb6b-444ef9313086}, !- Handle
  1.3.1;                                  !- Version Identifier

OS:Material,
  {ad805d18-502a-47fe-bf96-250e715278ec}, !- Handle
  CMU,                                    !- Name
  Rough,                                  !- Roughness
  0.1524,                                 !- Thickness {m}
  0.194060449786815,                      !- Conductivity {W/m-K}
  1030.7268,                              !- Density {kg/m3}
  851.643869443581;                       !- Specific Heat {J/kg-K}

