
OS:Version,
  {83a52c25-5740-4792-a282-47ccd30399a3}, !- Handle
  1.3.1;                                  !- Version Identifier

OS:Material,
  {67260a07-2d88-49df-9f03-eff9500d88b7}, !- Handle
  Concrete_4in,                           !- Name
  Rough,                                  !- Roughness
  0.1016,                                 !- Thickness {m}
  1.3114056,                              !- Conductivity {W/m-K}
  2242.79999999999,                       !- Density {kg/m3}
  837.4;                                  !- Specific Heat {J/kg-K}

