
OS:Version,
  {6497416c-a17a-4de5-8697-808a6e3136ca}, !- Handle
  1.3.1;                                  !- Version Identifier

OS:Material,
  {1593b4fa-72e1-44c9-bc0d-1579a7269d8e}, !- Handle
  Concrete_8in,                           !- Name
  Rough,                                  !- Roughness
  0.2032,                                 !- Thickness {m}
  1.3114056,                              !- Conductivity {W/m-K}
  2242.79999999999,                       !- Density {kg/m3}
  837.4;                                  !- Specific Heat {J/kg-K}

