
OS:Version,
  {41bde9d7-1160-4139-8fe4-b1661266dd6f}, !- Handle
  1.3.1;                                  !- Version Identifier

OS:Material,
  {49ccaa28-d126-4613-8727-6f14c37dca7e}, !- Handle
  CrawlCeilingIns,                        !- Name
  Rough,                                  !- Roughness
  0.23495,                                !- Thickness {m}
  0.0754732191870427,                     !- Conductivity {W/m-K}
  106.36479,                              !- Density {kg/m3}
  1151.68513065742;                       !- Specific Heat {J/kg-K}

