
OS:Version,
  {d39b88ee-3c5b-4ae5-887d-064e00347401}, !- Handle
  1.3.1;                                  !- Version Identifier

OS:Material,
  {1514e293-e455-4020-a375-cd80817df8fb}, !- Handle
  CrawlCeilingIns,                        !- Name
  Rough,                                  !- Roughness
  0.23495,                                !- Thickness {m}
  0.104255480780976,                      !- Conductivity {W/m-K}
  106.36479,                              !- Density {kg/m3}
  1151.68513065742;                       !- Specific Heat {J/kg-K}

