
OS:Version,
  {3f48e113-bd8e-45d2-94b9-1e54ecc7449b}, !- Handle
  1.3.1;                                  !- Version Identifier

OS:Material,
  {0c56775b-9171-4dd2-b151-1004b84df6aa}, !- Handle
  CrawlCeilingIns,                        !- Name
  Rough,                                  !- Roughness
  0.23495,                                !- Thickness {m}
  2.59817370406863,                       !- Conductivity {W/m-K}
  106.36479,                              !- Density {kg/m3}
  1151.68513065742;                       !- Specific Heat {J/kg-K}

