
OS:Version,
  {6210eaac-e667-4dda-8ae3-3c914c80d40c}, !- Handle
  1.3.1;                                  !- Version Identifier

OS:Material,
  {239e9f7f-f1dd-4979-87e4-913c9bad70e8}, !- Handle
  CrawlCeilingIns,                        !- Name
  Rough,                                  !- Roughness
  0.23495,                                !- Thickness {m}
  2.59817370406863,                       !- Conductivity {W/m-K}
  106.36479,                              !- Density {kg/m3}
  1151.68513065742;                       !- Specific Heat {J/kg-K}

