
OS:Version,
  {e57d2593-5514-4074-a14c-4ed3269579f8}, !- Handle
  1.3.1;                                  !- Version Identifier

OS:Material,
  {4c747a1d-c887-4fb4-a528-b1ed80cf9833}, !- Handle
  CrawlCeilingIns,                        !- Name
  Rough,                                  !- Roughness
  0.23495,                                !- Thickness {m}
  2.59817370406863,                       !- Conductivity {W/m-K}
  106.36479,                              !- Density {kg/m3}
  1151.68513065742;                       !- Specific Heat {J/kg-K}

