
OS:Version,
  {89b01af8-a22d-4150-ad93-8e7185954803}, !- Handle
  1.3.1;                                  !- Version Identifier

OS:Material,
  {b6dff934-da01-44a8-88c7-180b4a49ae89}, !- Handle
  CrawlCeilingIns,                        !- Name
  Rough,                                  !- Roughness
  0.23495,                                !- Thickness {m}
  2.59817370406863,                       !- Conductivity {W/m-K}
  106.36479,                              !- Density {kg/m3}
  1151.68513065742;                       !- Specific Heat {J/kg-K}

