
OS:Version,
  {bdd170e2-e8d7-49b6-b536-53ec6cf65c4d}, !- Handle
  1.3.1;                                  !- Version Identifier

OS:Material,
  {4d3a3282-f0ac-43ea-88b9-a45b674ea40a}, !- Handle
  CrawlCeilingIns,                        !- Name
  Rough,                                  !- Roughness
  0.23495,                                !- Thickness {m}
  2.59817370406863,                       !- Conductivity {W/m-K}
  106.36479,                              !- Density {kg/m3}
  1151.68513065742;                       !- Specific Heat {J/kg-K}

