
OS:Version,
  {6aaebc25-5be9-4477-8383-e3154cc473c4}, !- Handle
  1.3.1;                                  !- Version Identifier

OS:Material,
  {e30842c4-d79f-4110-b871-f3a6e8456ec3}, !- Handle
  CrawlCeilingIns,                        !- Name
  Rough,                                  !- Roughness
  0.23495,                                !- Thickness {m}
  2.59817370406863,                       !- Conductivity {W/m-K}
  106.36479,                              !- Density {kg/m3}
  1151.68513065742;                       !- Specific Heat {J/kg-K}

