
OS:Version,
  {68b4cbdc-4c1f-469e-8768-b68b3de93ddd}, !- Handle
  1.3.1;                                  !- Version Identifier

OS:Material,
  {c891a39c-ac72-40f0-a560-1c32e03ca5b9}, !- Handle
  CrawlCeilingIns,                        !- Name
  Rough,                                  !- Roughness
  0.23495,                                !- Thickness {m}
  2.59817370406863,                       !- Conductivity {W/m-K}
  106.36479,                              !- Density {kg/m3}
  1151.68513065742;                       !- Specific Heat {J/kg-K}

