
OS:Version,
  {2657ad35-e183-4ea6-9f71-5c495d7807cc}, !- Handle
  1.3.1;                                  !- Version Identifier

OS:Material,
  {a09e8875-a6f8-46a3-a4f1-468e9f1940eb}, !- Handle
  CSJoistandCavity,                       !- Name
  Rough,                                  !- Roughness
  0.23495,                                !- Thickness {m}
  0.110682016358495,                      !- Conductivity {W/m-K}
  108.738954,                             !- Density {kg/m3}
  1149.39401785582;                       !- Specific Heat {J/kg-K}

