
OS:Version,
  {2e73b91c-8ace-499c-a818-8f2064e8636c}, !- Handle
  1.3.1;                                  !- Version Identifier

OS:Material,
  {b6e85ad3-730d-40a8-a981-0524226a5ba6}, !- Handle
  CSJoistandCavity,                       !- Name
  Rough,                                  !- Roughness
  0.23495,                                !- Thickness {m}
  0.0695596794908662,                     !- Conductivity {W/m-K}
  108.738954,                             !- Density {kg/m3}
  1149.39401785582;                       !- Specific Heat {J/kg-K}

