
OS:Version,
  {18ef1538-e50a-47a6-8da7-8ac51d421576}, !- Handle
  1.3.1;                                  !- Version Identifier

OS:Material,
  {423ebaed-6e3a-43cd-a42f-e974fea0bcdf}, !- Handle
  CSJoistandCavity,                       !- Name
  Rough,                                  !- Roughness
  0.23495,                                !- Thickness {m}
  0.0391775744568136,                     !- Conductivity {W/m-K}
  108.738954,                             !- Density {kg/m3}
  1149.39401785582;                       !- Specific Heat {J/kg-K}

