
OS:Version,
  {4a380d46-f867-4b22-bef1-af00d3cdd7a1}, !- Handle
  1.3.1;                                  !- Version Identifier

OS:Material,
  {eb9638bb-2028-485d-b0eb-bf090435811d}, !- Handle
  CSJoistandCavity,                       !- Name
  Rough,                                  !- Roughness
  0.23495,                                !- Thickness {m}
  0.0960550613478366,                     !- Conductivity {W/m-K}
  108.738954,                             !- Density {kg/m3}
  1149.39401785582;                       !- Specific Heat {J/kg-K}

