
OS:Version,
  {cccd2b53-8422-4593-a5d1-c7b102496296}, !- Handle
  1.3.1;                                  !- Version Identifier

OS:Material,
  {5ec20fe9-42c6-4e01-866c-5648b75d5be6}, !- Handle
  CSJoistandCavity,                       !- Name
  Rough,                                  !- Roughness
  0.23495,                                !- Thickness {m}
  0.0639116675350494,                     !- Conductivity {W/m-K}
  108.738954,                             !- Density {kg/m3}
  1149.39401785582;                       !- Specific Heat {J/kg-K}

