
OS:Version,
  {0c179330-4cd5-4a59-86ea-2f4385124da1}, !- Handle
  1.3.1;                                  !- Version Identifier

OS:Material,
  {74bd82c1-8c55-4745-ae03-1624d432e1e8}, !- Handle
  CSJoistandCavity,                       !- Name
  Rough,                                  !- Roughness
  0.23495,                                !- Thickness {m}
  0.102814149707233,                      !- Conductivity {W/m-K}
  108.738954,                             !- Density {kg/m3}
  1149.39401785582;                       !- Specific Heat {J/kg-K}

