
OS:Version,
  {787264fa-505a-43e3-a93e-20c6b792e3f2}, !- Handle
  1.3.1;                                  !- Version Identifier

OS:Material,
  {8471b887-1221-452b-80d7-2a5a0a31d0fd}, !- Handle
  CSJoistandCavity,                       !- Name
  Rough,                                  !- Roughness
  0.23495,                                !- Thickness {m}
  0.584197590381047,                      !- Conductivity {W/m-K}
  41.0839868271477,                       !- Density {kg/m3}
  1208.63462554837;                       !- Specific Heat {J/kg-K}

