
OS:Version,
  {825c4900-b5e7-4954-8fd9-2f2c6676c700}, !- Handle
  1.3.1;                                  !- Version Identifier

OS:Material,
  {5f350031-c8bc-486e-9522-78afce9501f8}, !- Handle
  CWallIns,                               !- Name
  Rough,                                  !- Roughness
  0.0762,                                 !- Thickness {m}
  0.02885,                                !- Conductivity {W/m-K}
  32.04,                                  !- Density {kg/m3}
  1214.23;                                !- Specific Heat {J/kg-K}

