
OS:Version,
  {e15794d7-2cc3-4bf4-86b1-a911df1c7633}, !- Handle
  1.3.1;                                  !- Version Identifier

OS:Material:NoMass,
  {995e1642-ab91-481c-8a12-12a146b2e3ab}, !- Handle
  CWall_FicR_Ceiling_R_30_Closed_Cell_Spray_Foam, !- Name
  Rough,                                  !- Roughness
  0.0995182101488837;                     !- Thermal Resistance {m2-K/W}

