
OS:Version,
  {fcd4fd0c-9daf-4339-828f-5a5aa243e4c4}, !- Handle
  1.3.1;                                  !- Version Identifier

OS:Material,
  {a7c357e7-02ce-449c-876d-fdb9d0240c46}, !- Handle
  CWallIns,                               !- Name
  Rough,                                  !- Roughness
  0.06604,                                !- Thickness {m}
  0.02885,                                !- Conductivity {W/m-K}
  32.04,                                  !- Density {kg/m3}
  1214.23;                                !- Specific Heat {J/kg-K}

