
OS:Version,
  {121489b5-1f0f-4ec9-8ebf-1cae7d7ad0ef}, !- Handle
  1.3.1;                                  !- Version Identifier

OS:Material,
  {960b73bc-3c11-4a1b-bf00-0a060a13c3b3}, !- Handle
  CWallIns,                               !- Name
  Rough,                                  !- Roughness
  0.1016,                                 !- Thickness {m}
  0.02885,                                !- Conductivity {W/m-K}
  32.04,                                  !- Density {kg/m3}
  1214.23;                                !- Specific Heat {J/kg-K}

