
OS:Version,
  {39ccd3ae-ba2e-4524-8cd8-9a585fcd2a50}, !- Handle
  1.3.1;                                  !- Version Identifier

OS:Material,
  {c56eadff-1908-420e-954b-399e9dad6541}, !- Handle
  CWallIns,                               !- Name
  Rough,                                  !- Roughness
  0.09652,                                !- Thickness {m}
  0.02885,                                !- Conductivity {W/m-K}
  32.04,                                  !- Density {kg/m3}
  1214.23;                                !- Specific Heat {J/kg-K}

