
OS:Version,
  {0484484a-ee02-4b87-a0ba-8e4b05a7c35a}, !- Handle
  1.3.1;                                  !- Version Identifier

OS:Material:NoMass,
  {b941e12f-4415-447d-ae81-9ef2e899d32a}, !- Handle
  CWall_FicR_Ceiling_R_19_Closed_Cell_Spray_Foam, !- Name
  Rough,                                  !- Roughness
  0.0995182101488837;                     !- Thermal Resistance {m2-K/W}

