
OS:Version,
  {987a3b1b-a5f9-4acc-a440-b012abaf91c0}, !- Handle
  1.3.1;                                  !- Version Identifier

OS:Material,
  {6e836d6d-094f-439f-91c4-e9c50ca21fdc}, !- Handle
  CWallIns,                               !- Name
  Rough,                                  !- Roughness
  0.06096,                                !- Thickness {m}
  0.02885,                                !- Conductivity {W/m-K}
  32.04,                                  !- Density {kg/m3}
  1214.23;                                !- Specific Heat {J/kg-K}

