
OS:Version,
  {d7bb5b09-5d7d-4597-b3e0-26915d50b3b8}, !- Handle
  1.3.1;                                  !- Version Identifier

OS:Material,
  {52fd8d41-7366-48fc-85d3-005db2d5ae61}, !- Handle
  CWallIns,                               !- Name
  Rough,                                  !- Roughness
  0.05588,                                !- Thickness {m}
  0.02885,                                !- Conductivity {W/m-K}
  32.04,                                  !- Density {kg/m3}
  1214.23;                                !- Specific Heat {J/kg-K}

