
OS:Version,
  {bee3f8d9-89ab-4c39-8578-645d10eb6081}, !- Handle
  1.3.1;                                  !- Version Identifier

OS:Material:NoMass,
  {03d7fc1b-233f-496d-b9e2-882f58db0c24}, !- Handle
  CWall_FicR_Ceiling_R_30_Fiberglass_Batt, !- Name
  Rough,                                  !- Roughness
  0.0995182101488837;                     !- Thermal Resistance {m2-K/W}

