
OS:Version,
  {f8958c66-ee34-4a2f-9c69-1dfc978eff6e}, !- Handle
  1.3.1;                                  !- Version Identifier

OS:Material,
  {ffdec5a5-99f7-48f7-8bed-14070891129b}, !- Handle
  CWallIns,                               !- Name
  Rough,                                  !- Roughness
  0.0254,                                 !- Thickness {m}
  0.02885,                                !- Conductivity {W/m-K}
  32.04,                                  !- Density {kg/m3}
  1214.23;                                !- Specific Heat {J/kg-K}

