
OS:Version,
  {01fc7e23-9912-4cc0-9fd3-53ee521605b7}, !- Handle
  1.3.1;                                  !- Version Identifier

OS:Material,
  {5a7447c4-a6a6-4ed6-8d3a-4d3666455cb9}, !- Handle
  CWallIns,                               !- Name
  Rough,                                  !- Roughness
  0.0508,                                 !- Thickness {m}
  0.02885,                                !- Conductivity {W/m-K}
  32.04,                                  !- Density {kg/m3}
  1214.23;                                !- Specific Heat {J/kg-K}

