
OS:Version,
  {858d417e-717e-4c05-bc63-ae6f5045ffd1}, !- Handle
  1.3.1;                                  !- Version Identifier

OS:Material:NoMass,
  {302cbec6-fb7e-4a47-8cec-e5e3ff803c15}, !- Handle
  CWall_FicR_Ceiling_R_13_Closed_Cell_Spray_Foam, !- Name
  Rough,                                  !- Roughness
  0.0995182101488837;                     !- Thermal Resistance {m2-K/W}

