
OS:Version,
  {54ef0f8a-2f35-4ee8-a849-693b3de9c409}, !- Handle
  1.3.1;                                  !- Version Identifier

OS:Material,
  {86ff2a30-ad04-4dc4-8f79-eb2b0b76b8d0}, !- Handle
  DoorMaterial,                           !- Name
  Rough,                                  !- Roughness
  0.0633984,                              !- Thickness {m}
  0.0873267038564152,                     !- Conductivity {W/m-K}
  512.64,                                 !- Density {kg/m3}
  1214.23;                                !- Specific Heat {J/kg-K}

