
OS:Version,
  {4cc079a4-7b3c-43f6-97b5-c85e39ac3be6}, !- Handle
  1.3.1;                                  !- Version Identifier

OS:Material,
  {a6dc127d-4a62-4387-aa90-8a267e1d873d}, !- Handle
  Exterior_Finish_Vinyl_Medium_Dark,      !- Name
  Rough,                                  !- Roughness
  0.009525,                               !- Thickness {m}
  0.089435,                               !- Conductivity {W/m-K}
  177.822,                                !- Density {kg/m3}
  1046.75,                                !- Specific Heat {J/kg-K}
  0.9,                                    !- Thermal Absorptance
  0.75,                                   !- Solar Absorptance
  0.75;                                   !- Visible Absorptance

