
OS:Version,
  {3da6a4b7-7df8-43d9-99dd-2e6f7de7fa1d}, !- Handle
  1.3.1;                                  !- Version Identifier

OS:Material,
  {e2bec843-06df-44ef-a5ff-d6f49c0ebdaf}, !- Handle
  Exterior_Finish_Brick_Light,            !- Name
  Rough,                                  !- Roughness
  0.1016,                                 !- Thickness {m}
  0.793375,                               !- Conductivity {W/m-K}
  1762.2,                                 !- Density {kg/m3}
  795.53,                                 !- Specific Heat {J/kg-K}
  0.93,                                   !- Thermal Absorptance
  0.55,                                   !- Solar Absorptance
  0.55;                                   !- Visible Absorptance

