
OS:Version,
  {1f557413-3d05-4d30-8fe2-4f4ecdced6f7}, !- Handle
  1.3.1;                                  !- Version Identifier

OS:Material,
  {351e4b04-ebab-4441-bb81-46b16a38afe8}, !- Handle
  Exterior_Finish_Stucco_Medium_Dark,     !- Name
  Rough,                                  !- Roughness
  0.0254,                                 !- Thickness {m}
  0.649125,                               !- Conductivity {W/m-K}
  1281.6,                                 !- Density {kg/m3}
  879.27,                                 !- Specific Heat {J/kg-K}
  0.9,                                    !- Thermal Absorptance
  0.75,                                   !- Solar Absorptance
  0.75;                                   !- Visible Absorptance

