
OS:Version,
  {2fa8ce91-0101-4f60-b0ea-d69e3ff21713}, !- Handle
  1.3.1;                                  !- Version Identifier

OS:Material,
  {16058093-ba28-45d9-a75e-857d44eb5224}, !- Handle
  Exterior_Finish_Fiber_Cement_Medium_Dark, !- Name
  Rough,                                  !- Roughness
  0.009525,                               !- Thickness {m}
  0.2582075,                              !- Conductivity {W/m-K}
  347.633999999999,                       !- Density {kg/m3}
  1004.88,                                !- Specific Heat {J/kg-K}
  0.9,                                    !- Thermal Absorptance
  0.75,                                   !- Solar Absorptance
  0.75;                                   !- Visible Absorptance

