
OS:Version,
  {ac099450-ce98-4704-aa71-3fc088a56726}, !- Handle
  1.3.1;                                  !- Version Identifier

OS:Material:NoMass,
  {4b4c6a1f-3f4f-42bb-951a-8a13aa369b5c}, !- Handle
  FBaseWall_FicR_Whole_Wall_R_13_Fiberglass_Batt_Gr_2_2x4_16_in_o.c._R_5_XPS, !- Name
  Rough,                                  !- Roughness
  0.898330040812252;                      !- Thermal Resistance {m2-K/W}

