
OS:Version,
  {8351cdc0-a5c2-4de7-95dc-76a2b041523b}, !- Handle
  1.3.1;                                  !- Version Identifier

OS:Material,
  {3698fb59-4945-4a8e-9250-c0fe32830cae}, !- Handle
  FBaseWallIns,                           !- Name
  Rough,                                  !- Roughness
  0.051816,                               !- Thickness {m}
  0.029427,                               !- Conductivity {W/m-K}
  32.04,                                  !- Density {kg/m3}
  1214.23;                                !- Specific Heat {J/kg-K}

