
OS:Version,
  {9729814e-b111-4c71-a89e-d96967e1da8a}, !- Handle
  1.3.1;                                  !- Version Identifier

OS:Material:NoMass,
  {89aaf3e1-c310-4e86-ab69-b7a0f0bd139f}, !- Handle
  FBaseWall_FicR_Whole_Wall_R_5_XPS,      !- Name
  Rough,                                  !- Roughness
  0.145662742196422;                      !- Thermal Resistance {m2-K/W}

