
OS:Version,
  {d7caa6e3-e6c0-4b42-956e-6b053b0cef9b}, !- Handle
  1.3.1;                                  !- Version Identifier

OS:Material,
  {be49420f-4c32-4716-b083-cb1cfa8c30d6}, !- Handle
  FBaseWallIns,                           !- Name
  Rough,                                  !- Roughness
  0.103632,                               !- Thickness {m}
  0.029427,                               !- Conductivity {W/m-K}
  32.04,                                  !- Density {kg/m3}
  1214.23;                                !- Specific Heat {J/kg-K}

