
OS:Version,
  {da80bb10-388d-45de-b3bf-77ee280926ff}, !- Handle
  1.3.1;                                  !- Version Identifier

OS:Material:NoMass,
  {b4b2b273-b7a7-4de7-be5d-618b57ca6220}, !- Handle
  FBaseFloor_FicR_Whole_Wall_R_20_XPS,    !- Name
  Rough,                                  !- Roughness
  7.58538903773754;                       !- Thermal Resistance {m2-K/W}

