
OS:Version,
  {5c3d084d-e6c7-404d-a711-685d1f3a3f18}, !- Handle
  1.3.1;                                  !- Version Identifier

OS:Material:NoMass,
  {9bd50054-7c08-48f7-9ec9-143f95670b66}, !- Handle
  FBaseWall_FicR_Half_Wall_R_5_XPS,       !- Name
  Rough,                                  !- Roughness
  0.610367492146114;                      !- Thermal Resistance {m2-K/W}

