
OS:Version,
  {d5ec4283-863b-4289-a10b-68eeb1536877}, !- Handle
  1.3.1;                                  !- Version Identifier

OS:Material:NoMass,
  {09a6eefd-23bf-4e8f-88a4-7d7cb948be39}, !- Handle
  FBaseWall_FicR_Whole_Wall_R_13_Fiberglass_Batt_Gr_2_2x4_16_in_o.c., !- Name
  Rough,                                  !- Roughness
  1.3756607842657;                        !- Thermal Resistance {m2-K/W}

