
OS:Version,
  {2fe372f4-d0bf-4a87-8792-db9a38be45db}, !- Handle
  1.3.1;                                  !- Version Identifier

OS:Material:NoMass,
  {4fb35589-4747-4c12-9bda-72c76cfd869b}, !- Handle
  FBaseFloor_FicR_Whole_Wall_R_5_XPS,     !- Name
  Rough,                                  !- Roughness
  176.1;                                  !- Thermal Resistance {m2-K/W}

