
OS:Version,
  {877f261b-79ae-47b8-8bc4-2f9d81f7cc44}, !- Handle
  1.3.1;                                  !- Version Identifier

OS:Material:NoMass,
  {2b2b86a4-a982-4790-ab11-9eb1a464fb3a}, !- Handle
  FBaseFloor_FicR_Uninsulated,            !- Name
  Rough,                                  !- Roughness
  176.1;                                  !- Thermal Resistance {m2-K/W}

