
OS:Version,
  {f2d581e2-9e48-49e1-b2e2-b0980522e6a0}, !- Handle
  1.3.1;                                  !- Version Identifier

OS:Material:NoMass,
  {21f093d6-12ed-4573-ba83-95f4cac4fca3}, !- Handle
  FBaseFloor_FicR_Whole_Wall_R_13_Fiberglass_Batt_Gr_2_2x4_16_in_o.c._R_5_XPS, !- Name
  Rough,                                  !- Roughness
  176.1;                                  !- Thermal Resistance {m2-K/W}

