
OS:Version,
  {6fa15f05-1c19-4050-84e0-74f870d070b0}, !- Handle
  1.3.1;                                  !- Version Identifier

OS:Material,
  {0e94c95c-33df-4cfd-bb97-ec57c63b4dfb}, !- Handle
  FBaseWallIns,                           !- Name
  Rough,                                  !- Roughness
  0.025908,                               !- Thickness {m}
  0.029427,                               !- Conductivity {W/m-K}
  32.04,                                  !- Density {kg/m3}
  1214.23;                                !- Specific Heat {J/kg-K}

