
OS:Version,
  {f13764e4-944e-4c12-b93c-545d80fef18e}, !- Handle
  1.3.1;                                  !- Version Identifier

OS:Material:NoMass,
  {1cf6024d-7eae-475c-93cc-fc2925b7b51f}, !- Handle
  FBaseFloor_FicR_Whole_Wall_R_10_XPS,    !- Name
  Rough,                                  !- Roughness
  14.9906731159965;                       !- Thermal Resistance {m2-K/W}

