
OS:Version,
  {144b9ddf-b7b7-4f0d-a42d-4096da8fbbb2}, !- Handle
  1.3.1;                                  !- Version Identifier

OS:Material:NoMass,
  {091dae94-913f-4d9e-a3af-d8517af0d0b7}, !- Handle
  FBaseWall_FicR_Whole_Wall_R_13_Fiberglass_Batt_Gr_2_2x4_16_in_o.c._R_10_XPS, !- Name
  Rough,                                  !- Roughness
  0.331166394736562;                      !- Thermal Resistance {m2-K/W}

