
OS:Version,
  {f74fd8a6-702a-426a-9b54-c8cb59c50624}, !- Handle
  1.3.1;                                  !- Version Identifier

OS:Material,
  {0fb75c6a-2cb3-4082-8809-c69ca12b54a3}, !- Handle
  FBaseWallIns,                           !- Name
  Rough,                                  !- Roughness
  0.025908,                               !- Thickness {m}
  0.029427,                               !- Conductivity {W/m-K}
  32.04,                                  !- Density {kg/m3}
  1214.23;                                !- Specific Heat {J/kg-K}

