
OS:Version,
  {f2ff82f5-6fbb-4d04-b0a7-9c85dff45cbc}, !- Handle
  1.3.1;                                  !- Version Identifier

OS:Material,
  {9905c886-eb58-411a-ac03-7c735bbafc88}, !- Handle
  FBsmtJoistandCavity,                    !- Name
  Rough,                                  !- Roughness
  0.23495,                                !- Thickness {m}
  0.119552552416697,                      !- Conductivity {W/m-K}
  82.081674,                              !- Density {kg/m3}
  1128.33754025411;                       !- Specific Heat {J/kg-K}

