
OS:Version,
  {d763c7cd-3d6e-483a-bf4d-58f5ab8c62d0}, !- Handle
  1.3.1;                                  !- Version Identifier

OS:Material,
  {243beb5c-7613-44a0-9852-36ddc236c567}, !- Handle
  FBsmtFurnitureMaterial,                 !- Name
  Rough,                                  !- Roughness
  0.1524,                                 !- Thickness {m}
  0.1154577,                              !- Conductivity {W/m-K}
  640.8,                                  !- Density {kg/m3}
  1214.23;                                !- Specific Heat {J/kg-K}

