
OS:Version,
  {30a6af93-c45d-44bb-8fa5-b183487c7bf8}, !- Handle
  1.3.1;                                  !- Version Identifier

OS:Material,
  {453d4de4-241f-42dd-b562-6d473a79cf0f}, !- Handle
  FBsmtJoistandCavity,                    !- Name
  Rough,                                  !- Roughness
  0.23495,                                !- Thickness {m}
  0.0694218422736166,                     !- Conductivity {W/m-K}
  41.0839868271477,                       !- Density {kg/m3}
  1208.63462554837;                       !- Specific Heat {J/kg-K}

