
OS:Version,
  {5655c8c5-18f8-42f4-9c88-7490c780e104}, !- Handle
  1.3.1;                                  !- Version Identifier

OS:Material,
  {bd28233a-534b-4792-86cc-68a7e9ad8c88}, !- Handle
  FBsmtJoistandCavity,                    !- Name
  Rough,                                  !- Roughness
  0.23495,                                !- Thickness {m}
  0.0664755028327524,                     !- Conductivity {W/m-K}
  82.081674,                              !- Density {kg/m3}
  1128.33754025411;                       !- Specific Heat {J/kg-K}

