
OS:Version,
  {b2e09728-d388-403a-8638-d9256f9a0b01}, !- Handle
  1.3.1;                                  !- Version Identifier

OS:Material,
  {e86c2d53-a6a4-4a96-a351-83701189c7a9}, !- Handle
  FBsmtJoistandCavity,                    !- Name
  Rough,                                  !- Roughness
  0.23495,                                !- Thickness {m}
  0.119552552416697,                      !- Conductivity {W/m-K}
  82.081674,                              !- Density {kg/m3}
  1128.33754025411;                       !- Specific Heat {J/kg-K}

