
OS:Version,
  {64a534cf-12ae-4c1f-a4e8-2938cbd159ec}, !- Handle
  1.3.1;                                  !- Version Identifier

OS:Material,
  {3a885d78-0c7a-4deb-8923-caa85eb92dc3}, !- Handle
  FBsmtJoistandCavity,                    !- Name
  Rough,                                  !- Roughness
  0.23495,                                !- Thickness {m}
  0.209992697194386,                      !- Conductivity {W/m-K}
  82.081674,                              !- Density {kg/m3}
  1128.33754025411;                       !- Specific Heat {J/kg-K}

