
OS:Version,
  {d0af273a-5517-41e0-a3d0-899b4278ab07}, !- Handle
  1.3.1;                                  !- Version Identifier

OS:Material,
  {4b2f5c49-7d11-41eb-bb95-2d7a0504fe03}, !- Handle
  FBsmtJoistandCavity,                    !- Name
  Rough,                                  !- Roughness
  0.23495,                                !- Thickness {m}
  0.0848380348558231,                     !- Conductivity {W/m-K}
  82.081674,                              !- Density {kg/m3}
  1128.33754025411;                       !- Specific Heat {J/kg-K}

