
OS:Version,
  {841fe7a3-3d6a-4239-9efc-4e6b0f5d2605}, !- Handle
  1.3.1;                                  !- Version Identifier

OS:Material,
  {acd0cf44-d19d-4118-bf08-1ef51875463a}, !- Handle
  Floor_Mass_Wood_Surface,                !- Name
  Rough,                                  !- Roughness
  0.015875,                               !- Thickness {m}
  0.1154577,                              !- Conductivity {W/m-K}
  544.68,                                 !- Density {kg/m3}
  1214.23,                                !- Specific Heat {J/kg-K}
  0.9,                                    !- Thermal Absorptance
  0.6;                                    !- Solar Absorptance

