
OS:Version,
  {8c1034bf-8b87-40dc-80a0-06fa104dd400}, !- Handle
  1.3.1;                                  !- Version Identifier

OS:Material,
  {c067cf79-95fa-4578-87ef-8bf5e78547e3}, !- Handle
  Floor_Mass_2_in_Gypsum_Concrete,        !- Name
  Rough,                                  !- Roughness
  0.0508,                                 !- Thickness {m}
  0.6851875,                              !- Conductivity {W/m-K}
  1602,                                   !- Density {kg/m3}
  933.701,                                !- Specific Heat {J/kg-K}
  0.9,                                    !- Thermal Absorptance
  0.6;                                    !- Solar Absorptance

