
OS:Version,
  {0dea1db0-b9e0-478b-bc6b-d2ba861bd6b9}, !- Handle
  1.3.1;                                  !- Version Identifier

OS:Material,
  {13643e0c-4104-4765-9bed-bf20ff9b7fcd}, !- Handle
  Furring,                                !- Name
  Rough,                                  !- Roughness
  0.0508,                                 !- Thickness {m}
  0.04084516645,                          !- Conductivity {W/m-K}
  110.3341455,                            !- Density {kg/m3}
  1154.52431712832;                       !- Specific Heat {J/kg-K}

