
OS:Version,
  {20808d45-fc42-44be-8bb0-2019f82f55af}, !- Handle
  1.3.1;                                  !- Version Identifier

OS:Material,
  {82f8a88e-b259-4529-8b25-6f82eca02c85}, !- Handle
  Furring,                                !- Name
  Rough,                                  !- Roughness
  0.0508,                                 !- Thickness {m}
  0.0351095645269231,                     !- Conductivity {W/m-K}
  110.3341455,                            !- Density {kg/m3}
  1154.52431712832;                       !- Specific Heat {J/kg-K}

