
OS:Version,
  {c2493bdc-5c2c-46d8-a87a-eed143a13fdf}, !- Handle
  1.3.1;                                  !- Version Identifier

OS:Material,
  {a8ca4bd2-6f06-40dd-ba9f-5b3b25511829}, !- Handle
  Furring,                                !- Name
  Rough,                                  !- Roughness
  0.1397,                                 !- Thickness {m}
  0.0519641842131579,                     !- Conductivity {W/m-K}
  110.3341455,                            !- Density {kg/m3}
  1154.52431712832;                       !- Specific Heat {J/kg-K}

