
OS:Version,
  {6f825e85-065e-4564-9992-339a6737c64a}, !- Handle
  1.3.1;                                  !- Version Identifier

OS:Material,
  {68604432-ea66-4c40-8ea2-46b2a6411d7b}, !- Handle
  Furring,                                !- Name
  Rough,                                  !- Roughness
  0.1397,                                 !- Thickness {m}
  0.0519641842131579,                     !- Conductivity {W/m-K}
  110.3341455,                            !- Density {kg/m3}
  1154.52431712832;                       !- Specific Heat {J/kg-K}

