
OS:Version,
  {d1d1c2ca-516c-493a-9a78-df934f182ef8}, !- Handle
  1.3.1;                                  !- Version Identifier

OS:Material,
  {7d60b109-c6e8-42f4-a4c7-78e3aefcab69}, !- Handle
  Furring,                                !- Name
  Rough,                                  !- Roughness
  0.0508,                                 !- Thickness {m}
  0.0367027872833333,                     !- Conductivity {W/m-K}
  110.3341455,                            !- Density {kg/m3}
  1154.52431712832;                       !- Specific Heat {J/kg-K}

