
OS:Version,
  {2af8bb09-328f-405c-8528-41cd74d1d96b}, !- Handle
  1.3.1;                                  !- Version Identifier

OS:Material,
  {3a8fc71a-64b3-4147-8c16-4204aa892574}, !- Handle
  Furring,                                !- Name
  Rough,                                  !- Roughness
  0.0508,                                 !- Thickness {m}
  0.0351095645269231,                     !- Conductivity {W/m-K}
  110.3341455,                            !- Density {kg/m3}
  1154.52431712832;                       !- Specific Heat {J/kg-K}

