
OS:Version,
  {6a4f081c-e8fb-4be0-83bb-4c4142fe79c8}, !- Handle
  1.3.1;                                  !- Version Identifier

OS:Material,
  {30e763f1-9217-47eb-916b-6892ee772353}, !- Handle
  Furring,                                !- Name
  Rough,                                  !- Roughness
  0.0508,                                 !- Thickness {m}
  0.0367027872833333,                     !- Conductivity {W/m-K}
  110.3341455,                            !- Density {kg/m3}
  1154.52431712832;                       !- Specific Heat {J/kg-K}

