
OS:Version,
  {4ef9d82c-9190-41fb-8d64-a076aeea2331}, !- Handle
  1.3.1;                                  !- Version Identifier

OS:Material,
  {1707c01a-0175-4e2e-9d49-92c65dfe5565}, !- Handle
  Furring,                                !- Name
  Rough,                                  !- Roughness
  0.0508,                                 !- Thickness {m}
  0.04084516645,                          !- Conductivity {W/m-K}
  110.3341455,                            !- Density {kg/m3}
  1154.52431712832;                       !- Specific Heat {J/kg-K}

