
OS:Version,
  {c83273a9-682f-4183-af2d-8b1c9b2c5bb6}, !- Handle
  1.3.1;                                  !- Version Identifier

OS:Material,
  {cc61fc82-95b2-4af4-9c7d-ffde320e1558}, !- Handle
  Furring,                                !- Name
  Rough,                                  !- Roughness
  0.1397,                                 !- Thickness {m}
  0.0519641842131579,                     !- Conductivity {W/m-K}
  110.3341455,                            !- Density {kg/m3}
  1154.52431712832;                       !- Specific Heat {J/kg-K}

