
OS:Version,
  {2a4dd08c-c0ca-4b91-8f11-801530befcc2}, !- Handle
  1.3.1;                                  !- Version Identifier

OS:Material,
  {97cc18a3-ba3e-476c-87b1-713fa2764ed8}, !- Handle
  Furring,                                !- Name
  Rough,                                  !- Roughness
  0.0254,                                 !- Thickness {m}
  0.14026226645,                          !- Conductivity {W/m-K}
  110.3341455,                            !- Density {kg/m3}
  1154.52431712832;                       !- Specific Heat {J/kg-K}

