
OS:Version,
  {0daf50eb-6c75-4b8e-9c15-3c55c8260522}, !- Handle
  1.3.1;                                  !- Version Identifier

OS:Material,
  {ee6ff0aa-c0f6-4cbe-9b93-50282a9a3529}, !- Handle
  Furring,                                !- Name
  Rough,                                  !- Roughness
  0.0508,                                 !- Thickness {m}
  0.04084516645,                          !- Conductivity {W/m-K}
  110.3341455,                            !- Density {kg/m3}
  1154.52431712832;                       !- Specific Heat {J/kg-K}

