
OS:Version,
  {0feedf28-227f-4819-b2a3-bf3975169d0a}, !- Handle
  1.3.1;                                  !- Version Identifier

OS:Material,
  {c9796678-5de7-4767-8049-fdab0d44a4f0}, !- Handle
  GarageDoorMaterial,                     !- Name
  Rough,                                  !- Roughness
  0.0633984,                              !- Thickness {m}
  0.0873267038564152,                     !- Conductivity {W/m-K}
  512.64,                                 !- Density {kg/m3}
  1214.23;                                !- Specific Heat {J/kg-K}

