
OS:Version,
  {da0b724c-718c-4769-a614-2a511029fd0f}, !- Handle
  1.3.1;                                  !- Version Identifier

OS:Material,
  {4d15eb69-ad92-46ef-9515-bd06c66d393a}, !- Handle
  GarageFurnitureMaterial,                !- Name
  Rough,                                  !- Roughness
  0.1524,                                 !- Thickness {m}
  0.1154577,                              !- Conductivity {W/m-K}
  640.8,                                  !- Density {kg/m3}
  1214.23;                                !- Specific Heat {J/kg-K}

