
OS:Version,
  {dd5477ed-173c-43a0-a08c-e4755c93e554}, !- Handle
  1.3.1;                                  !- Version Identifier

OS:Material,
  {434db07a-3600-4147-b9d4-9680fe8e9695}, !- Handle
  GrgRoofStudandAir,                      !- Name
  Rough,                                  !- Roughness
  0.0889,                                 !- Thickness {m}
  3.2214781383103,                        !- Conductivity {W/m-K}
  57.4503560478975,                       !- Density {kg/m3}
  1210.36750350924;                       !- Specific Heat {J/kg-K}

