
OS:Version,
  {e27553e1-4c11-4d4b-b01c-6214f9765d5d}, !- Handle
  1.3.1;                                  !- Version Identifier

OS:Material,
  {c925deb8-0c90-4545-a120-d11248ac7307}, !- Handle
  ICFConcrete,                            !- Name
  Rough,                                  !- Roughness
  0.2032,                                 !- Thickness {m}
  1.2205135596,                           !- Conductivity {W/m-K}
  2111.30784,                             !- Density {kg/m3}
  844.353764720165;                       !- Specific Heat {J/kg-K}

