
OS:Version,
  {996ba9d2-7641-4771-a9cc-269f58d26484}, !- Handle
  1.3.1;                                  !- Version Identifier

OS:Material,
  {55f69620-93ea-43c3-ab87-a4cb911e0872}, !- Handle
  IntFloorIns,                            !- Name
  Rough,                                  !- Roughness
  0.1397,                                 !- Thickness {m}
  0.0489547873864979,                     !- Conductivity {W/m-K}
  106.36479,                              !- Density {kg/m3}
  1151.68513065742;                       !- Specific Heat {J/kg-K}

