
OS:Version,
  {48c54645-0901-4c2c-9b7f-0e3b6b033c10}, !- Handle
  1.3.1;                                  !- Version Identifier

OS:Material,
  {28bbfd76-4a18-4293-ba32-c7fa8943dff1}, !- Handle
  IntFloorIns,                            !- Name
  Rough,                                  !- Roughness
  0.1397,                                 !- Thickness {m}
  0.0668174663130742,                     !- Conductivity {W/m-K}
  106.36479,                              !- Density {kg/m3}
  1151.68513065742;                       !- Specific Heat {J/kg-K}

