
OS:Version,
  {3eb8f221-c51e-4f24-bfea-dc12cbde89b4}, !- Handle
  1.3.1;                                  !- Version Identifier

OS:Material,
  {4a156d43-b532-4d94-aeaa-8f74b34e5fe2}, !- Handle
  IntFloorIns,                            !- Name
  Rough,                                  !- Roughness
  0.1397,                                 !- Thickness {m}
  0.0292076004914801,                     !- Conductivity {W/m-K}
  106.36479,                              !- Density {kg/m3}
  1151.68513065742;                       !- Specific Heat {J/kg-K}

