
OS:Version,
  {a80137cb-d2ce-40c7-aacd-b9b12abecd7f}, !- Handle
  1.3.1;                                  !- Version Identifier

OS:Material,
  {1fb3d84b-ecef-4b89-b28d-2904328e24e8}, !- Handle
  IntFloorIns,                            !- Name
  Rough,                                  !- Roughness
  0.1397,                                 !- Thickness {m}
  0.0292076004914801,                     !- Conductivity {W/m-K}
  106.36479,                              !- Density {kg/m3}
  1151.68513065742;                       !- Specific Heat {J/kg-K}

