
OS:Version,
  {fcc54df1-fcd2-4cb4-abd4-7fd6a503dffe}, !- Handle
  1.3.1;                                  !- Version Identifier

OS:Material,
  {43b9f674-15bd-4f90-a1e5-152c9d7c573b}, !- Handle
  IntFloorIns,                            !- Name
  Rough,                                  !- Roughness
  0.1397,                                 !- Thickness {m}
  0.0292076004914801,                     !- Conductivity {W/m-K}
  106.36479,                              !- Density {kg/m3}
  1151.68513065742;                       !- Specific Heat {J/kg-K}

