
OS:Version,
  {f1d5e672-8abe-47ab-aba2-ff4fb209b239}, !- Handle
  1.3.1;                                  !- Version Identifier

OS:Material,
  {e6f1f547-61cb-4eb5-b534-b9b346d709ea}, !- Handle
  IntSheathing,                           !- Name
  Rough,                                  !- Roughness
  0.011176,                               !- Thickness {m}
  0.1154577,                              !- Conductivity {W/m-K}
  512.64,                                 !- Density {kg/m3}
  1214.23;                                !- Specific Heat {J/kg-K}

