
OS:Version,
  {b4767a68-2c91-4fc2-911e-5cdcde644176}, !- Handle
  1.3.1;                                  !- Version Identifier

OS:Material,
  {07529445-1b59-4bae-8c32-7f6e139a0b38}, !- Handle
  IntSheathing,                           !- Name
  Rough,                                  !- Roughness
  0.0127,                                 !- Thickness {m}
  0.1602906,                              !- Conductivity {W/m-K}
  801,                                    !- Density {kg/m3}
  837.4;                                  !- Specific Heat {J/kg-K}

