
OS:Version,
  {54851369-86d5-4a2a-a1c5-bc890dd7e1ca}, !- Handle
  1.3.1;                                  !- Version Identifier

OS:Material,
  {c73a31e2-9e07-40da-ae3e-ca5ce641f2d0}, !- Handle
  IntSheathing,                           !- Name
  Rough,                                  !- Roughness
  0.011176,                               !- Thickness {m}
  0.1154577,                              !- Conductivity {W/m-K}
  512.64,                                 !- Density {kg/m3}
  1214.23;                                !- Specific Heat {J/kg-K}

