
OS:Version,
  {240e9b8b-01db-4316-b0cb-e356f464b561}, !- Handle
  1.3.1;                                  !- Version Identifier

OS:Material,
  {47938dfc-ae40-4cd7-a533-dbb3c6aeec10}, !- Handle
  IntSheathing,                           !- Name
  Rough,                                  !- Roughness
  0.011176,                               !- Thickness {m}
  0.1154577,                              !- Conductivity {W/m-K}
  512.64,                                 !- Density {kg/m3}
  1214.23;                                !- Specific Heat {J/kg-K}

