
OS:Version,
  {97b80153-964f-426b-a802-9a60d670f2fc}, !- Handle
  1.3.1;                                  !- Version Identifier

OS:Material,
  {95a9e98f-49d8-477a-9d0b-1221b17da9a0}, !- Handle
  IntSheathing,                           !- Name
  Rough,                                  !- Roughness
  0.0127,                                 !- Thickness {m}
  0.1602906,                              !- Conductivity {W/m-K}
  801,                                    !- Density {kg/m3}
  837.4;                                  !- Specific Heat {J/kg-K}

