
OS:Version,
  {35d762e1-43e8-4927-af91-26f763b1861f}, !- Handle
  1.3.1;                                  !- Version Identifier

OS:Material,
  {c63d3726-5316-4d51-9b58-b636967f1722}, !- Handle
  IntSheathing,                           !- Name
  Rough,                                  !- Roughness
  0.0127,                                 !- Thickness {m}
  0.1602906,                              !- Conductivity {W/m-K}
  801,                                    !- Density {kg/m3}
  837.4;                                  !- Specific Heat {J/kg-K}

