
OS:Version,
  {6f700c0d-13e9-4dc1-bdce-adbf016b8016}, !- Handle
  1.3.1;                                  !- Version Identifier

OS:Material,
  {206e10f5-7b45-4852-a67f-3393cc180300}, !- Handle
  IntWallIns,                             !- Name
  Rough,                                  !- Roughness
  0.1397,                                 !- Thickness {m}
  0.0562369351831405,                     !- Conductivity {W/m-K}
  148.39326,                              !- Density {kg/m3}
  1174.03696966425;                       !- Specific Heat {J/kg-K}

