
OS:Version,
  {3ffb5a48-1dfe-4ad5-947d-c40053b50577}, !- Handle
  1.3.1;                                  !- Version Identifier

OS:Material,
  {00bebe90-0f77-4580-bcf2-2c545217094c}, !- Handle
  IntWallIns,                             !- Name
  Rough,                                  !- Roughness
  0.0889,                                 !- Thickness {m}
  0.0640327981726168,                     !- Conductivity {W/m-K}
  161.735759427773,                       !- Density {kg/m3}
  1179.45713225292;                       !- Specific Heat {J/kg-K}

