
OS:Version,
  {17e8ae37-e43a-4527-9957-c68ac808d3f0}, !- Handle
  1.3.1;                                  !- Version Identifier

OS:Material,
  {20d7d4da-57e1-42eb-b0fe-a670b6b32203}, !- Handle
  IntWallIns,                             !- Name
  Rough,                                  !- Roughness
  0.0889,                                 !- Thickness {m}
  0.0608813220406077,                     !- Conductivity {W/m-K}
  162.40275,                              !- Density {kg/m3}
  1178.91670776818;                       !- Specific Heat {J/kg-K}

