
OS:Version,
  {f87d0d90-a041-4260-87f1-3bad7af40b84}, !- Handle
  1.3.1;                                  !- Version Identifier

OS:Material,
  {3ed7adcd-3ff4-43cd-9308-a0a04b7653f0}, !- Handle
  IntWallIns,                             !- Name
  Rough,                                  !- Roughness
  0.0889,                                 !- Thickness {m}
  0.0558994451190464,                     !- Conductivity {W/m-K}
  160.735273569433,                       !- Density {kg/m3}
  1180.27617856933;                       !- Specific Heat {J/kg-K}

