
OS:Version,
  {c1bcc1af-2d60-4b21-9ae3-5299a3c316cc}, !- Handle
  1.3.1;                                  !- Version Identifier

OS:Material,
  {fb6f3cd9-b0da-429c-bdd3-dd2ad37c639f}, !- Handle
  IntWallIns,                             !- Name
  Rough,                                  !- Roughness
  0.0889,                                 !- Thickness {m}
  0.0552701765696122,                     !- Conductivity {W/m-K}
  160.735273569433,                       !- Density {kg/m3}
  1180.27617856933;                       !- Specific Heat {J/kg-K}

