
OS:Version,
  {7880ef83-b0bf-40f8-acfe-4ca03d4f6c61}, !- Handle
  1.3.1;                                  !- Version Identifier

OS:Material,
  {505d14b4-9cd6-4bd6-9ff9-1e8762a7bb64}, !- Handle
  IntWallIns,                             !- Name
  Rough,                                  !- Roughness
  0.0889,                                 !- Thickness {m}
  0.0550583396675322,                     !- Conductivity {W/m-K}
  162.40275,                              !- Density {kg/m3}
  1178.91670776818;                       !- Specific Heat {J/kg-K}

