
OS:Version,
  {9a2588df-d366-4ac4-815f-2b8f248284bd}, !- Handle
  1.3.1;                                  !- Version Identifier

OS:Material,
  {66d73568-d6bd-4734-a50e-15bec23afda2}, !- Handle
  IntWallIns,                             !- Name
  Rough,                                  !- Roughness
  0.0889,                                 !- Thickness {m}
  0.0582188545471149,                     !- Conductivity {W/m-K}
  161.735759427773,                       !- Density {kg/m3}
  1179.45713225292;                       !- Specific Heat {J/kg-K}

