
OS:Version,
  {ddb21e9d-53ed-4933-b2e0-050e63456c04}, !- Handle
  1.3.1;                                  !- Version Identifier

OS:Material,
  {2c441c1d-484c-4b75-9ec6-1309f3a20b9f}, !- Handle
  IntWallIns,                             !- Name
  Rough,                                  !- Roughness
  0.0889,                                 !- Thickness {m}
  0.0587833704673405,                     !- Conductivity {W/m-K}
  160.735273569433,                       !- Density {kg/m3}
  1180.27617856933;                       !- Specific Heat {J/kg-K}

