
OS:Version,
  {ae96ea10-d2c8-47f6-883e-7b91d78e633b}, !- Handle
  1.3.1;                                  !- Version Identifier

OS:Material,
  {dd12b832-bbbf-44ae-9d9f-b28fd1c5e8cb}, !- Handle
  IntWallIns,                             !- Name
  Rough,                                  !- Roughness
  0.0889,                                 !- Thickness {m}
  0.0582188545471149,                     !- Conductivity {W/m-K}
  161.735759427773,                       !- Density {kg/m3}
  1179.45713225292;                       !- Specific Heat {J/kg-K}

