
OS:Version,
  {20a70be6-f9bf-4c95-bebd-9bc44480049a}, !- Handle
  1.3.1;                                  !- Version Identifier

OS:Material,
  {0adc1344-0db9-4ca7-8a96-15772d20fdeb}, !- Handle
  IntWallIns,                             !- Name
  Rough,                                  !- Roughness
  0.1397,                                 !- Thickness {m}
  0.0446826239375982,                     !- Conductivity {W/m-K}
  147.699589804884,                       !- Density {kg/m3}
  1174.62950532575;                       !- Specific Heat {J/kg-K}

