
OS:Version,
  {c90efd01-86e9-4328-b398-0d9f1de7bec1}, !- Handle
  1.3.1;                                  !- Version Identifier

OS:Material,
  {5763055f-6275-4e59-b05d-0677150f0835}, !- Handle
  IntWallIns,                             !- Name
  Rough,                                  !- Roughness
  0.1397,                                 !- Thickness {m}
  0.0720515164519663,                     !- Conductivity {W/m-K}
  146.659084512211,                       !- Density {kg/m3}
  1175.52881850606;                       !- Specific Heat {J/kg-K}

