
OS:Version,
  {46017d45-8921-4aa4-b90a-3f3dfa810698}, !- Handle
  1.3.1;                                  !- Version Identifier

OS:Material,
  {775871d0-d7a1-42da-8f01-ae0f516517b9}, !- Handle
  IntWallIns,                             !- Name
  Rough,                                  !- Roughness
  0.0889,                                 !- Thickness {m}
  0.068871157366415,                      !- Conductivity {W/m-K}
  160.735273569433,                       !- Density {kg/m3}
  1180.27617856933;                       !- Specific Heat {J/kg-K}

