
OS:Version,
  {26154ede-0884-496d-9250-4d8b8223bb81}, !- Handle
  1.3.1;                                  !- Version Identifier

OS:Material,
  {08f6fbbb-c11e-4d48-bdb7-91c61c5123a7}, !- Handle
  IntWallIns,                             !- Name
  Rough,                                  !- Roughness
  0.0889,                                 !- Thickness {m}
  0.0827559331747354,                     !- Conductivity {W/m-K}
  160.735273569433,                       !- Density {kg/m3}
  1180.27617856933;                       !- Specific Heat {J/kg-K}

