
OS:Version,
  {cb3f969c-df95-4461-b54e-2846d82e6ff1}, !- Handle
  1.3.1;                                  !- Version Identifier

OS:Material,
  {40bf5982-38c6-4498-8d2b-c3a5c8716adf}, !- Handle
  IntWallIns,                             !- Name
  Rough,                                  !- Roughness
  0.0889,                                 !- Thickness {m}
  0.0630733918289322,                     !- Conductivity {W/m-K}
  160.735273569433,                       !- Density {kg/m3}
  1180.27617856933;                       !- Specific Heat {J/kg-K}

