
OS:Version,
  {460d951e-9e63-4cd0-95ae-251d3ff8a380}, !- Handle
  1.3.1;                                  !- Version Identifier

OS:Material,
  {00cc6a61-da3d-4d99-8e0e-eb9253fc49b9}, !- Handle
  IntWallIns,                             !- Name
  Rough,                                  !- Roughness
  0.1397,                                 !- Thickness {m}
  0.057050988197587,                      !- Conductivity {W/m-K}
  148.39326,                              !- Density {kg/m3}
  1174.03696966425;                       !- Specific Heat {J/kg-K}

