
OS:Version,
  {ca7caaf3-570e-454c-b7ea-ba7c146a53d5}, !- Handle
  1.3.1;                                  !- Version Identifier

OS:Material,
  {fa6bc787-6695-48a1-baff-c5b6bef94b84}, !- Handle
  IntWallIns,                             !- Name
  Rough,                                  !- Roughness
  0.1397,                                 !- Thickness {m}
  0.0653745317614135,                     !- Conductivity {W/m-K}
  146.659084512211,                       !- Density {kg/m3}
  1175.52881850606;                       !- Specific Heat {J/kg-K}

