
OS:Version,
  {3b83f55f-b0f9-426a-9471-ffa5c13ea741}, !- Handle
  1.3.1;                                  !- Version Identifier

OS:Material,
  {f1b0f15f-d09d-4692-8ea3-609bbbd3cd6f}, !- Handle
  IntWallIns,                             !- Name
  Rough,                                  !- Roughness
  0.1397,                                 !- Thickness {m}
  0.0686668938718154,                     !- Conductivity {W/m-K}
  146.659084512211,                       !- Density {kg/m3}
  1175.52881850606;                       !- Specific Heat {J/kg-K}

