
OS:Version,
  {4291be09-7d9d-4416-87ab-06060e0f7b96}, !- Handle
  1.3.1;                                  !- Version Identifier

OS:Material,
  {c2037d2e-e0b1-4afd-93a0-4965ff19c7a2}, !- Handle
  IntWallIns,                             !- Name
  Rough,                                  !- Roughness
  0.0889,                                 !- Thickness {m}
  0.0440825492248761,                     !- Conductivity {W/m-K}
  161.735759427773,                       !- Density {kg/m3}
  1179.45713225292;                       !- Specific Heat {J/kg-K}

