
OS:Version,
  {df9ca130-6937-4b5e-95d3-80c370c4d48e}, !- Handle
  1.3.1;                                  !- Version Identifier

OS:Material,
  {75012845-fcd0-48ef-a68e-92a5d688aeb9}, !- Handle
  IntWallIns,                             !- Name
  Rough,                                  !- Roughness
  0.1397,                                 !- Thickness {m}
  0.0529397129168297,                     !- Conductivity {W/m-K}
  148.39326,                              !- Density {kg/m3}
  1174.03696966425;                       !- Specific Heat {J/kg-K}

