
OS:Version,
  {b6936953-ad71-4608-8333-d39186525b44}, !- Handle
  1.3.1;                                  !- Version Identifier

OS:Material,
  {14c82611-1299-4c20-896b-89b28a371b9d}, !- Handle
  IntWallIns,                             !- Name
  Rough,                                  !- Roughness
  0.0889,                                 !- Thickness {m}
  0.0539190109249705,                     !- Conductivity {W/m-K}
  161.735759427773,                       !- Density {kg/m3}
  1179.45713225292;                       !- Specific Heat {J/kg-K}

