
OS:Version,
  {7071df42-18b7-4fd8-bc10-5eb96b27ee51}, !- Handle
  1.3.1;                                  !- Version Identifier

OS:Material,
  {3c321f21-f3e2-4dc6-80fa-c8963f47c269}, !- Handle
  IntWallIns,                             !- Name
  Rough,                                  !- Roughness
  0.1397,                                 !- Thickness {m}
  0.0597532794875061,                     !- Conductivity {W/m-K}
  147.699589804884,                       !- Density {kg/m3}
  1174.62950532575;                       !- Specific Heat {J/kg-K}

