
OS:Version,
  {c4923715-7e3f-4564-a235-90fff7da0469}, !- Handle
  1.3.1;                                  !- Version Identifier

OS:Material,
  {a454a4f7-ba36-4d2a-aeec-faa5a5700bc0}, !- Handle
  IntWallIns,                             !- Name
  Rough,                                  !- Roughness
  0.1397,                                 !- Thickness {m}
  0.0596277517725398,                     !- Conductivity {W/m-K}
  148.39326,                              !- Density {kg/m3}
  1174.03696966425;                       !- Specific Heat {J/kg-K}

