
OS:Version,
  {96da940d-c34a-4dbe-b3e8-c54beb4b5c0e}, !- Handle
  1.3.1;                                  !- Version Identifier

OS:Material,
  {81939f5b-c37c-4869-b8e0-6aece0c94721}, !- Handle
  IntWallIns,                             !- Name
  Rough,                                  !- Roughness
  0.1397,                                 !- Thickness {m}
  0.062812663312628,                      !- Conductivity {W/m-K}
  146.659084512211,                       !- Density {kg/m3}
  1175.52881850606;                       !- Specific Heat {J/kg-K}

