
OS:Version,
  {5a0b42e3-86f5-4d7c-a779-f7f595155f6a}, !- Handle
  1.3.1;                                  !- Version Identifier

OS:Material,
  {f427fdb6-947f-467f-976d-9edd6c6ea17f}, !- Handle
  IntWallIns,                             !- Name
  Rough,                                  !- Roughness
  0.0889,                                 !- Thickness {m}
  0.0582188545471149,                     !- Conductivity {W/m-K}
  161.735759427773,                       !- Density {kg/m3}
  1179.45713225292;                       !- Specific Heat {J/kg-K}

