
OS:Version,
  {bac18675-8fea-465d-bb65-0461db7e408e}, !- Handle
  1.3.1;                                  !- Version Identifier

OS:Material,
  {f42171f8-a9be-455c-bba0-b9c305cfd7f0}, !- Handle
  IntWallIns,                             !- Name
  Rough,                                  !- Roughness
  0.0889,                                 !- Thickness {m}
  0.0527651508937209,                     !- Conductivity {W/m-K}
  161.735759427773,                       !- Density {kg/m3}
  1179.45713225292;                       !- Specific Heat {J/kg-K}

