
OS:Version,
  {c43243a0-4f3e-4975-a999-5a6d9be98ef6}, !- Handle
  1.3.1;                                  !- Version Identifier

OS:Material,
  {70821e13-9952-4a6d-93e9-033ada34e649}, !- Handle
  IntWallIns,                             !- Name
  Rough,                                  !- Roughness
  0.1397,                                 !- Thickness {m}
  0.0562369351831405,                     !- Conductivity {W/m-K}
  148.39326,                              !- Density {kg/m3}
  1174.03696966425;                       !- Specific Heat {J/kg-K}

