
OS:Version,
  {2923d8c4-71ae-412e-9258-002300e8c299}, !- Handle
  1.3.1;                                  !- Version Identifier

OS:Material,
  {fe3052fe-9bae-4724-8376-e1dce7a0a0e7}, !- Handle
  IntWallIns,                             !- Name
  Rough,                                  !- Roughness
  0.0889,                                 !- Thickness {m}
  0.0511524795240903,                     !- Conductivity {W/m-K}
  162.40275,                              !- Density {kg/m3}
  1178.91670776818;                       !- Specific Heat {J/kg-K}

