
OS:Version,
  {c1096f13-290b-4eeb-8b10-f9ce58965e6d}, !- Handle
  1.3.1;                                  !- Version Identifier

OS:Material,
  {bae23e8b-bb58-438e-a2e7-61b8590abadc}, !- Handle
  IntWallIns,                             !- Name
  Rough,                                  !- Roughness
  0.0889,                                 !- Thickness {m}
  0.0532441564359105,                     !- Conductivity {W/m-K}
  161.735759427773,                       !- Density {kg/m3}
  1179.45713225292;                       !- Specific Heat {J/kg-K}

