
OS:Version,
  {a8784cc0-da9f-4a25-a330-e9d6df5dce42}, !- Handle
  1.3.1;                                  !- Version Identifier

OS:Material,
  {a4025bcc-2ed6-4cf8-ae4a-b4b26efb653c}, !- Handle
  IntWallIns,                             !- Name
  Rough,                                  !- Roughness
  0.1397,                                 !- Thickness {m}
  0.0578392327918752,                     !- Conductivity {W/m-K}
  147.699589804884,                       !- Density {kg/m3}
  1174.62950532575;                       !- Specific Heat {J/kg-K}

