
OS:Version,
  {e436201a-e9d8-4fca-8064-16c54727a119}, !- Handle
  1.3.1;                                  !- Version Identifier

OS:Material,
  {b8392ee2-965b-437a-82cc-2c10e5f91bf5}, !- Handle
  IntWallIns,                             !- Name
  Rough,                                  !- Roughness
  0.1397,                                 !- Thickness {m}
  0.0635100362677633,                     !- Conductivity {W/m-K}
  146.659084512211,                       !- Density {kg/m3}
  1175.52881850606;                       !- Specific Heat {J/kg-K}

