
OS:Version,
  {f823c856-8814-44e4-9ff5-b0ba34235836}, !- Handle
  1.3.1;                                  !- Version Identifier

OS:Material,
  {6ad6a38e-d081-476c-8195-dac15711063f}, !- Handle
  Layer3,                                 !- Name
  Rough,                                  !- Roughness
  0.0635,                                 !- Thickness {m}
  1.07769175,                             !- Conductivity {W/m-K}
  2188.1718,                              !- Density {kg/m3}
  1172.36;                                !- Specific Heat {J/kg-K}

