
OS:Version,
  {8b429115-0f41-4975-8664-db4976333811}, !- Handle
  1.3.1;                                  !- Version Identifier

OS:Material,
  {ab001ae8-d0df-4c61-a2f2-03485b55f7d3}, !- Handle
  Layer3,                                 !- Name
  Rough,                                  !- Roughness
  0.06985,                                !- Thickness {m}
  1.36085449999999,                       !- Conductivity {W/m-K}
  2156.1318,                              !- Density {kg/m3}
  1046.75;                                !- Specific Heat {J/kg-K}

