
OS:Version,
  {2e985a91-66c0-4232-81ab-07432a09d10e}, !- Handle
  1.3.1;                                  !- Version Identifier

OS:Material,
  {4a1916df-fcbb-4ea9-ac90-b48b18553513}, !- Handle
  LivingFurnitureMaterial,                !- Name
  Rough,                                  !- Roughness
  0.1524,                                 !- Thickness {m}
  0.1154577,                              !- Conductivity {W/m-K}
  640.8,                                  !- Density {kg/m3}
  1214.23;                                !- Specific Heat {J/kg-K}

