
OS:Version,
  {4e5853b3-66d6-4647-b2e6-9e04e625db9a}, !- Handle
  1.3.1;                                  !- Version Identifier

OS:Material,
  {02e279e8-dead-4c21-a406-e77adcef9a02}, !- Handle
  Mat-Fic-Slab,                           !- Name
  Rough,                                  !- Roughness
  0.0254,                                 !- Thickness {m}
  0.013147504639514,                      !- Conductivity {W/m-K}
  40.05,                                  !- Density {kg/m3}
  1214.23;                                !- Specific Heat {J/kg-K}

