
OS:Version,
  {3944671e-b3e7-412e-be2d-69929bd3074c}, !- Handle
  1.3.1;                                  !- Version Identifier

OS:Material,
  {4a9e2616-fcfd-4fa2-bf61-b4ae99f24c5f}, !- Handle
  Mat-Fic-Slab,                           !- Name
  Rough,                                  !- Roughness
  0.0254,                                 !- Thickness {m}
  0.0143788817161404,                     !- Conductivity {W/m-K}
  40.05,                                  !- Density {kg/m3}
  1214.23;                                !- Specific Heat {J/kg-K}

