
OS:Version,
  {4ab3061f-ff7b-4191-bd7a-cbbc7f3af33b}, !- Handle
  1.3.1;                                  !- Version Identifier

OS:Material,
  {6b968368-36e8-4a58-9646-015a90c8ed5d}, !- Handle
  Mat-Fic-Slab,                           !- Name
  Rough,                                  !- Roughness
  0.0254,                                 !- Thickness {m}
  0.0135459447575008,                     !- Conductivity {W/m-K}
  40.05,                                  !- Density {kg/m3}
  1214.23;                                !- Specific Heat {J/kg-K}

