
OS:Version,
  {a0cdaa9a-cacc-43ea-baf0-96975c22e1e6}, !- Handle
  1.3.1;                                  !- Version Identifier

OS:Material,
  {65e8fafd-36e1-4eb5-b159-cedee9eb400a}, !- Handle
  Mat-Fic-Slab,                           !- Name
  Rough,                                  !- Roughness
  0.0254,                                 !- Thickness {m}
  0.0102120221923402,                     !- Conductivity {W/m-K}
  40.05,                                  !- Density {kg/m3}
  1214.23;                                !- Specific Heat {J/kg-K}

