
OS:Version,
  {72008281-a347-4ddc-b013-8ae438f147e4}, !- Handle
  1.3.1;                                  !- Version Identifier

OS:Material,
  {efca6c58-2664-407c-844b-c28397eb53c1}, !- Handle
  Mat-Fic-Slab,                           !- Name
  Rough,                                  !- Roughness
  0.0254,                                 !- Thickness {m}
  0.0038317625676038,                     !- Conductivity {W/m-K}
  40.05,                                  !- Density {kg/m3}
  1214.23;                                !- Specific Heat {J/kg-K}

