
OS:Version,
  {7bd2b2bc-7e57-4e61-b06a-448c6a716375}, !- Handle
  1.3.1;                                  !- Version Identifier

OS:Material,
  {2f82a5f5-ed2a-4c38-9dca-67275adb0a0b}, !- Handle
  Mat-Fic-Slab,                           !- Name
  Rough,                                  !- Roughness
  0.0254,                                 !- Thickness {m}
  0.0217519417032411,                     !- Conductivity {W/m-K}
  40.05,                                  !- Density {kg/m3}
  1214.23;                                !- Specific Heat {J/kg-K}

