
OS:Version,
  {a5f04c9e-3a2f-4c23-b55a-69169774ba73}, !- Handle
  1.3.1;                                  !- Version Identifier

OS:Material,
  {c0b69782-4102-453c-b383-d4a2e57a3629}, !- Handle
  Mat-Fic-Slab,                           !- Name
  Rough,                                  !- Roughness
  0.0254,                                 !- Thickness {m}
  0.0072245993800049,                     !- Conductivity {W/m-K}
  40.05,                                  !- Density {kg/m3}
  1214.23;                                !- Specific Heat {J/kg-K}

