
OS:Version,
  {b63b5e14-2baa-43ed-b659-fdde78d2ba51}, !- Handle
  1.3.1;                                  !- Version Identifier

OS:Material,
  {a85a40fe-b0a8-4f3d-8a4c-5c63e1ce0134}, !- Handle
  Mat-Fic-Slab,                           !- Name
  Rough,                                  !- Roughness
  0.0254,                                 !- Thickness {m}
  0.0066922314981722,                     !- Conductivity {W/m-K}
  40.05,                                  !- Density {kg/m3}
  1214.23;                                !- Specific Heat {J/kg-K}

