
OS:Version,
  {8f8fffbc-23cb-426d-8e0a-57cbec820f1e}, !- Handle
  1.3.1;                                  !- Version Identifier

OS:Material,
  {d6dee04d-2c71-4269-9e98-91ee5ca9aa65}, !- Handle
  Mat-Fic-Slab,                           !- Name
  Rough,                                  !- Roughness
  0.0254,                                 !- Thickness {m}
  0.0110386398603933,                     !- Conductivity {W/m-K}
  40.05,                                  !- Density {kg/m3}
  1214.23;                                !- Specific Heat {J/kg-K}

