
OS:Version,
  {34c01395-6e08-4d64-8fbd-aee80b75b349}, !- Handle
  1.3.1;                                  !- Version Identifier

OS:Material,
  {57e767ac-0b87-4a18-8084-29994c334062}, !- Handle
  Mat-Fic-Slab,                           !- Name
  Rough,                                  !- Roughness
  0.0254,                                 !- Thickness {m}
  0.0047968592617598,                     !- Conductivity {W/m-K}
  40.05,                                  !- Density {kg/m3}
  1214.23;                                !- Specific Heat {J/kg-K}

