
OS:Version,
  {af747dc4-05fa-4e22-a6b4-610b31e67be2}, !- Handle
  1.3.1;                                  !- Version Identifier

OS:Material,
  {27b069d9-3659-4901-83e5-6e3be8ad5f52}, !- Handle
  Plywood_1_2in,                          !- Name
  Rough,                                  !- Roughness
  0.0127,                                 !- Thickness {m}
  0.1154577,                              !- Conductivity {W/m-K}
  512.64,                                 !- Density {kg/m3}
  1214.23;                                !- Specific Heat {J/kg-K}

