
OS:Version,
  {81561dcf-8bf1-4a32-99db-dc5de961cbf2}, !- Handle
  1.3.1;                                  !- Version Identifier

OS:Material,
  {824ecb6a-12e2-4d46-ad99-ffb9304aa5d3}, !- Handle
  Radiant_Barrier_Double_Sided_Foil,      !- Name
  Rough,                                  !- Roughness
  0.00021336,                             !- Thickness {m}
  235.0698,                               !- Conductivity {W/m-K}
  2700.97199999999,                       !- Density {kg/m3}
  921.14;                                 !- Specific Heat {J/kg-K}

