
OS:Version,
  {fd3e1087-dca5-4b34-9dd8-379399b4cfba}, !- Handle
  1.3.1;                                  !- Version Identifier

OS:Material,
  {985ef61d-4d30-4c26-aa54-4cef464a47e0}, !- Handle
  RoofIns,                                !- Name
  Rough,                                  !- Roughness
  0.0889,                                 !- Thickness {m}
  0.0414251358545846,                     !- Conductivity {W/m-K}
  78.34581,                               !- Density {kg/m3}
  1123.46101114405;                       !- Specific Heat {J/kg-K}

