
OS:Version,
  {c7a8cfee-0dee-4f30-bb12-af4374da865f}, !- Handle
  1.3.1;                                  !- Version Identifier

OS:Material,
  {e0d90e73-0a44-4aed-b7de-0ecf963b610c}, !- Handle
  RoofIns,                                !- Name
  Rough,                                  !- Roughness
  0.28575,                                !- Thickness {m}
  0.0508173373479523,                     !- Conductivity {W/m-K}
  78.34581,                               !- Density {kg/m3}
  1123.46101114405;                       !- Specific Heat {J/kg-K}

