
OS:Version,
  {6b07a5ce-d7d1-49d9-bac8-f4669725481b}, !- Handle
  1.3.1;                                  !- Version Identifier

OS:Material,
  {6b40a741-28c4-44e5-ac36-077b899b0a51}, !- Handle
  RoofIns,                                !- Name
  Rough,                                  !- Roughness
  0.23495,                                !- Thickness {m}
  0.0699016244340023,                     !- Conductivity {W/m-K}
  78.34581,                               !- Density {kg/m3}
  1123.46101114405;                       !- Specific Heat {J/kg-K}

