
OS:Version,
  {3e2f6391-01eb-4f05-9992-46af3874e056}, !- Handle
  1.3.1;                                  !- Version Identifier

OS:Material,
  {4c0a0f47-1f17-40fb-99e1-89c9187e32ea}, !- Handle
  RoofIns,                                !- Name
  Rough,                                  !- Roughness
  0.28575,                                !- Thickness {m}
  0.0364226903208699,                     !- Conductivity {W/m-K}
  78.34581,                               !- Density {kg/m3}
  1123.46101114405;                       !- Specific Heat {J/kg-K}

