
OS:Version,
  {fffdace1-1ac0-445d-a4ca-68f28f87ec9d}, !- Handle
  1.3.1;                                  !- Version Identifier

OS:Material,
  {04f19d10-20ee-4ae7-8954-546877161f6b}, !- Handle
  RoofIns,                                !- Name
  Rough,                                  !- Roughness
  0.1397,                                 !- Thickness {m}
  0.0461310475182132,                     !- Conductivity {W/m-K}
  78.34581,                               !- Density {kg/m3}
  1123.46101114405;                       !- Specific Heat {J/kg-K}

