
OS:Version,
  {f14316a7-2334-4f8b-bd08-d85100323e30}, !- Handle
  1.3.1;                                  !- Version Identifier

OS:Material,
  {d20fc3d1-9bfa-4d7a-9540-b68fb2d18d2a}, !- Handle
  RoofIns,                                !- Name
  Rough,                                  !- Roughness
  0.23495,                                !- Thickness {m}
  0.0401216802679937,                     !- Conductivity {W/m-K}
  78.34581,                               !- Density {kg/m3}
  1123.46101114405;                       !- Specific Heat {J/kg-K}

