
OS:Version,
  {290a3f75-096c-425e-93f0-14b8b801a68d}, !- Handle
  1.3.1;                                  !- Version Identifier

OS:Material,
  {fc884235-ee39-4def-b101-49199e8e1140}, !- Handle
  Roofing_Material_Tile_White,            !- Name
  Rough,                                  !- Roughness
  0.0094488,                              !- Thickness {m}
  0.162714,                               !- Conductivity {W/m-K}
  1121.39999999999,                       !- Density {kg/m3}
  1465.44999999999,                       !- Specific Heat {J/kg-K}
  0.93,                                   !- Thermal Absorptance
  0.3,                                    !- Solar Absorptance
  0.3;                                    !- Visible Absorptance

