
OS:Version,
  {e56acb8e-c83e-4430-b574-df215eba0dc7}, !- Handle
  1.3.1;                                  !- Version Identifier

OS:Material,
  {e1a45714-0416-45ce-87fb-1108d2211627}, !- Handle
  Roofing_Material_Asphalt_Shingles_Medium, !- Name
  Rough,                                  !- Roughness
  0.0094488,                              !- Thickness {m}
  0.162714,                               !- Conductivity {W/m-K}
  1121.39999999999,                       !- Density {kg/m3}
  1465.44999999999,                       !- Specific Heat {J/kg-K}
  0.91,                                   !- Thermal Absorptance
  0.85,                                   !- Solar Absorptance
  0.85;                                   !- Visible Absorptance

