
OS:Version,
  {b289bb6f-23ef-4d15-ad70-11d7ac571c0c}, !- Handle
  1.3.1;                                  !- Version Identifier

OS:Material,
  {d49ab573-a33c-439f-96e4-83e0e06a140b}, !- Handle
  RoofIns,                                !- Name
  Rough,                                  !- Roughness
  0.23495,                                !- Thickness {m}
  0.874315159551819,                      !- Conductivity {W/m-K}
  78.34581,                               !- Density {kg/m3}
  1123.46101114405;                       !- Specific Heat {J/kg-K}

