
OS:Version,
  {1576ad04-6fcd-4175-9fd5-fed3830ba1a8}, !- Handle
  1.3.1;                                  !- Version Identifier

OS:Material,
  {c837a48d-8587-4324-95c0-79cc210b7330}, !- Handle
  RoofIns,                                !- Name
  Rough,                                  !- Roughness
  0.1397,                                 !- Thickness {m}
  0.0446154134236264,                     !- Conductivity {W/m-K}
  78.34581,                               !- Density {kg/m3}
  1123.46101114405;                       !- Specific Heat {J/kg-K}

