
OS:Version,
  {9b25b918-1214-4f7b-b304-6ec3fe901a23}, !- Handle
  1.3.1;                                  !- Version Identifier

OS:Material,
  {eba6f3ef-565e-41f8-b0a7-6723f228b777}, !- Handle
  RoofIns,                                !- Name
  Rough,                                  !- Roughness
  0.28575,                                !- Thickness {m}
  0.0366592003174987,                     !- Conductivity {W/m-K}
  78.34581,                               !- Density {kg/m3}
  1123.46101114405;                       !- Specific Heat {J/kg-K}

