
OS:Version,
  {3c01129c-c1e6-4f7b-bce1-a8bad3f4e085}, !- Handle
  1.3.1;                                  !- Version Identifier

OS:Material,
  {a09a341d-2a39-4b40-9a6d-5db7f701177c}, !- Handle
  RoofIns,                                !- Name
  Rough,                                  !- Roughness
  0.28575,                                !- Thickness {m}
  0.0383347265470839,                     !- Conductivity {W/m-K}
  78.34581,                               !- Density {kg/m3}
  1123.46101114405;                       !- Specific Heat {J/kg-K}

