
OS:Version,
  {787c237a-cb5c-4217-86e0-7debef5827ee}, !- Handle
  1.3.1;                                  !- Version Identifier

OS:Material,
  {c2ba9bde-beba-4151-9331-f2ed7d38989c}, !- Handle
  Roofing_Material_Metal_Dark,            !- Name
  Rough,                                  !- Roughness
  0.0094488,                              !- Thickness {m}
  0.162714,                               !- Conductivity {W/m-K}
  1121.39999999999,                       !- Density {kg/m3}
  1465.44999999999,                       !- Specific Heat {J/kg-K}
  0.9,                                    !- Thermal Absorptance
  0.9,                                    !- Solar Absorptance
  0.9;                                    !- Visible Absorptance

