
OS:Version,
  {6620925e-5ce2-4cdd-9ac7-6277295bf22b}, !- Handle
  1.3.1;                                  !- Version Identifier

OS:Material,
  {01df3df2-c4e7-4abd-b415-7eae10577a8a}, !- Handle
  RoofIns,                                !- Name
  Rough,                                  !- Roughness
  0.23495,                                !- Thickness {m}
  0.858989459275272,                      !- Conductivity {W/m-K}
  78.34581,                               !- Density {kg/m3}
  1123.46101114405;                       !- Specific Heat {J/kg-K}

