
OS:Version,
  {34751f62-1150-47c1-8695-73395521c5bb}, !- Handle
  1.3.1;                                  !- Version Identifier

OS:Material,
  {fb979a3a-d52d-4595-a8b2-15ad0b787931}, !- Handle
  Roofing_Material_Asphalt_Shingles_Dark, !- Name
  Rough,                                  !- Roughness
  0.0094488,                              !- Thickness {m}
  0.162714,                               !- Conductivity {W/m-K}
  1121.39999999999,                       !- Density {kg/m3}
  1465.44999999999,                       !- Specific Heat {J/kg-K}
  0.91,                                   !- Thermal Absorptance
  0.92,                                   !- Solar Absorptance
  0.92;                                   !- Visible Absorptance

