
OS:Version,
  {a5ffdb74-2b7d-4ff1-a8f7-ee8b856b641b}, !- Handle
  1.3.1;                                  !- Version Identifier

OS:Material,
  {b098f22c-3ad6-45a7-81ce-3921c48f2d4d}, !- Handle
  Roofing_Material_Asphalt_Shingles_Light, !- Name
  Rough,                                  !- Roughness
  0.0094488,                              !- Thickness {m}
  0.162714,                               !- Conductivity {W/m-K}
  1121.39999999999,                       !- Density {kg/m3}
  1465.44999999999,                       !- Specific Heat {J/kg-K}
  0.91,                                   !- Thermal Absorptance
  0.8,                                    !- Solar Absorptance
  0.8;                                    !- Visible Absorptance

