
OS:Version,
  {16a9a10c-910d-4b21-9654-e82bda40b4ed}, !- Handle
  1.3.1;                                  !- Version Identifier

OS:Material,
  {4a3bc366-f4d1-4b1d-a2cf-62b2598d2887}, !- Handle
  RoofIns,                                !- Name
  Rough,                                  !- Roughness
  0.23495,                                !- Thickness {m}
  0.0508660644769094,                     !- Conductivity {W/m-K}
  78.34581,                               !- Density {kg/m3}
  1123.46101114405;                       !- Specific Heat {J/kg-K}

