
OS:Version,
  {536dd8ff-cbb0-400f-9232-bbbc91c52bcc}, !- Handle
  1.3.1;                                  !- Version Identifier

OS:Material,
  {c85f81f5-782d-41c1-8c8a-1531834b80e6}, !- Handle
  RoofIns,                                !- Name
  Rough,                                  !- Roughness
  0.23495,                                !- Thickness {m}
  1.12391917386368,                       !- Conductivity {W/m-K}
  78.34581,                               !- Density {kg/m3}
  1123.46101114405;                       !- Specific Heat {J/kg-K}

