
OS:Version,
  {2b69b3fc-f160-4245-a429-dda03b3f7af8}, !- Handle
  1.3.1;                                  !- Version Identifier

OS:Material,
  {4bda5b19-0d65-42b0-907b-8da8126a346a}, !- Handle
  RoofIns,                                !- Name
  Rough,                                  !- Roughness
  0.1905,                                 !- Thickness {m}
  0.02885,                                !- Conductivity {W/m-K}
  45.657,                                 !- Density {kg/m3}
  1046.75;                                !- Specific Heat {J/kg-K}

