
OS:Version,
  {aca27eef-fa1f-42d2-bed6-480479e803e9}, !- Handle
  1.3.1;                                  !- Version Identifier

OS:Material,
  {384d14bf-c8d3-4413-adf1-c1f1472b099b}, !- Handle
  RoofIns,                                !- Name
  Rough,                                  !- Roughness
  0.23495,                                !- Thickness {m}
  0.0476114827023943,                     !- Conductivity {W/m-K}
  78.34581,                               !- Density {kg/m3}
  1123.46101114405;                       !- Specific Heat {J/kg-K}

