
OS:Version,
  {e3243487-d857-4a9e-a406-93a0bdd7f863}, !- Handle
  1.3.1;                                  !- Version Identifier

OS:Material,
  {86e9cef6-1a35-4b7e-abb8-1c14793d6c7d}, !- Handle
  RoofIns,                                !- Name
  Rough,                                  !- Roughness
  0.28575,                                !- Thickness {m}
  0.0463397026893212,                     !- Conductivity {W/m-K}
  78.34581,                               !- Density {kg/m3}
  1123.46101114405;                       !- Specific Heat {J/kg-K}

