
OS:Version,
  {572e84dc-22b5-465e-b3f4-2e92c8cf2ccb}, !- Handle
  1.3.1;                                  !- Version Identifier

OS:Material,
  {3afeb947-186e-4979-9ad6-540f77498880}, !- Handle
  Roofing_Material_Asphalt_Shingles_White_or_cool_colors, !- Name
  Rough,                                  !- Roughness
  0.0094488,                              !- Thickness {m}
  0.162714,                               !- Conductivity {W/m-K}
  1121.39999999999,                       !- Density {kg/m3}
  1465.44999999999,                       !- Specific Heat {J/kg-K}
  0.91,                                   !- Thermal Absorptance
  0.75,                                   !- Solar Absorptance
  0.75;                                   !- Visible Absorptance

