
OS:Version,
  {0820b798-e0df-4374-947c-814a9c47be07}, !- Handle
  1.3.1;                                  !- Version Identifier

OS:Material,
  {5d22b3f3-0a88-4809-bda0-5d69f63b4845}, !- Handle
  RoofIns,                                !- Name
  Rough,                                  !- Roughness
  0.28575,                                !- Thickness {m}
  1.35603368146167,                       !- Conductivity {W/m-K}
  78.34581,                               !- Density {kg/m3}
  1123.46101114405;                       !- Specific Heat {J/kg-K}

