
OS:Version,
  {c2d1310d-d202-4218-9132-a851ac48bdb2}, !- Handle
  1.3.1;                                  !- Version Identifier

OS:Material,
  {24e2b325-eeb9-47e9-a4db-b15eb6bd21c1}, !- Handle
  RoofIns,                                !- Name
  Rough,                                  !- Roughness
  0.18415,                                !- Thickness {m}
  0.891143667623411,                      !- Conductivity {W/m-K}
  78.34581,                               !- Density {kg/m3}
  1123.46101114405;                       !- Specific Heat {J/kg-K}

