
OS:Version,
  {93ffcf36-52c5-4ff8-aa36-a1752009c830}, !- Handle
  1.3.1;                                  !- Version Identifier

OS:Material,
  {8bc2c1cd-667b-4734-8fa9-32a94f2291ce}, !- Handle
  RoofIns,                                !- Name
  Rough,                                  !- Roughness
  0.28575,                                !- Thickness {m}
  0.0564452455474513,                     !- Conductivity {W/m-K}
  78.34581,                               !- Density {kg/m3}
  1123.46101114405;                       !- Specific Heat {J/kg-K}

