
OS:Version,
  {443f1cdb-0f07-4efe-b1ac-cead06c91ed6}, !- Handle
  1.3.1;                                  !- Version Identifier

OS:Material,
  {f3850b4a-830d-4d18-a642-71af8470de85}, !- Handle
  Roofing_Material_Galvanized_Steel,      !- Name
  Rough,                                  !- Roughness
  0.0094488,                              !- Thickness {m}
  0.162714,                               !- Conductivity {W/m-K}
  1121.39999999999,                       !- Density {kg/m3}
  1465.44999999999,                       !- Specific Heat {J/kg-K}
  0.88,                                   !- Thermal Absorptance
  0.7,                                    !- Solar Absorptance
  0.7;                                    !- Visible Absorptance

