
OS:Version,
  {f5e664a5-08f1-47f0-bd20-672d6f0d77d2}, !- Handle
  1.3.1;                                  !- Version Identifier

OS:Material,
  {469c9656-6e13-412a-ad06-b0fd17f3e413}, !- Handle
  Roofing_Material_Metal_Light,           !- Name
  Rough,                                  !- Roughness
  0.0094488,                              !- Thickness {m}
  0.162714,                               !- Conductivity {W/m-K}
  1121.39999999999,                       !- Density {kg/m3}
  1465.44999999999,                       !- Specific Heat {J/kg-K}
  0.88,                                   !- Thermal Absorptance
  0.6,                                    !- Solar Absorptance
  0.6;                                    !- Visible Absorptance

