
OS:Version,
  {d543412e-f058-45e5-b982-7011217ed696}, !- Handle
  1.3.1;                                  !- Version Identifier

OS:Material,
  {cfff015c-1e85-405f-8d46-6bf0a32cec5d}, !- Handle
  RoofIns,                                !- Name
  Rough,                                  !- Roughness
  0.28575,                                !- Thickness {m}
  0.0362411036842435,                     !- Conductivity {W/m-K}
  78.34581,                               !- Density {kg/m3}
  1123.46101114405;                       !- Specific Heat {J/kg-K}

