
OS:Version,
  {09502f61-9cbb-49f2-8f1d-05e8daefc2c1}, !- Handle
  1.3.1;                                  !- Version Identifier

OS:Material,
  {cdbec1bc-29a2-48d4-a1dc-8d404471f2a5}, !- Handle
  Roofing_Material_Metal_White,           !- Name
  Rough,                                  !- Roughness
  0.0094488,                              !- Thickness {m}
  0.162714,                               !- Conductivity {W/m-K}
  1121.39999999999,                       !- Density {kg/m3}
  1465.44999999999,                       !- Specific Heat {J/kg-K}
  0.88,                                   !- Thermal Absorptance
  0.3,                                    !- Solar Absorptance
  0.3;                                    !- Visible Absorptance

