
OS:Version,
  {92569fc0-d78d-4f08-89ea-148559f3a515}, !- Handle
  1.3.1;                                  !- Version Identifier

OS:Material,
  {23fa8953-8c92-4a23-985b-ce396386688e}, !- Handle
  RoofIns,                                !- Name
  Rough,                                  !- Roughness
  0.1397,                                 !- Thickness {m}
  0.686476940326331,                      !- Conductivity {W/m-K}
  78.34581,                               !- Density {kg/m3}
  1123.46101114405;                       !- Specific Heat {J/kg-K}

