
OS:Version,
  {c740eb3e-b684-4552-b803-804c32e35b7d}, !- Handle
  1.3.1;                                  !- Version Identifier

OS:Material,
  {b63e707b-4af9-4189-8c5a-f7be870c642c}, !- Handle
  RoofIns,                                !- Name
  Rough,                                  !- Roughness
  0.0889,                                 !- Thickness {m}
  0.0430301908655293,                     !- Conductivity {W/m-K}
  78.34581,                               !- Density {kg/m3}
  1123.46101114405;                       !- Specific Heat {J/kg-K}

