
OS:Version,
  {9be00c7d-2123-444b-ac3a-369dac23657c}, !- Handle
  1.3.1;                                  !- Version Identifier

OS:Material,
  {b53fe622-78fe-48ac-a7d0-7b77ad5d7fa2}, !- Handle
  RoofIns,                                !- Name
  Rough,                                  !- Roughness
  0.1397,                                 !- Thickness {m}
  0.02885,                                !- Conductivity {W/m-K}
  45.657,                                 !- Density {kg/m3}
  1046.75;                                !- Specific Heat {J/kg-K}

