
OS:Version,
  {1afcc1bc-6684-4e91-a077-45c9db95932a}, !- Handle
  1.3.1;                                  !- Version Identifier

OS:Material,
  {2c61e4d2-8233-4539-a2ef-49d6696ccb49}, !- Handle
  RoofIns,                                !- Name
  Rough,                                  !- Roughness
  0.2413,                                 !- Thickness {m}
  0.02885,                                !- Conductivity {W/m-K}
  45.657,                                 !- Density {kg/m3}
  1046.75;                                !- Specific Heat {J/kg-K}

