
OS:Version,
  {7942e8e5-8b22-409f-953b-93a360efcab8}, !- Handle
  1.3.1;                                  !- Version Identifier

OS:Material,
  {11924b54-62cd-4c27-b474-9407a71734a0}, !- Handle
  SlabMass,                               !- Name
  Rough,                                  !- Roughness
  0.1016,                                 !- Thickness {m}
  1.312675,                               !- Conductivity {W/m-K}
  2242.79999999999,                       !- Density {kg/m3}
  837.4;                                  !- Specific Heat {J/kg-K}

