
OS:Version,
  {23767810-218d-4c27-802f-5114b3020310}, !- Handle
  1.3.1;                                  !- Version Identifier

OS:Material,
  {84adc231-226d-4d2a-8491-bcfc31e4f24b}, !- Handle
  SlabCarpetBareEquivalentMaterial,       !- Name
  Rough,                                  !- Roughness
  0.0254,                                 !- Thickness {m}
  0.0693443410649544,                     !- Conductivity {W/m-K}
  40.05,                                  !- Density {kg/m3}
  1214.23;                                !- Specific Heat {J/kg-K}

