
OS:Version,
  {68202a7f-baf1-49eb-a879-0f6eb32d173d}, !- Handle
  1.3.1;                                  !- Version Identifier

OS:Material,
  {83f5a67f-6c0a-46ec-a681-6e8dbabb6a6f}, !- Handle
  SlabCarpetBareEquivalentMaterial,       !- Name
  Rough,                                  !- Roughness
  0.0254,                                 !- Thickness {m}
  0.115573901774923,                      !- Conductivity {W/m-K}
  40.05,                                  !- Density {kg/m3}
  1214.23;                                !- Specific Heat {J/kg-K}

