
OS:Version,
  {a3f40d34-fcaf-429b-a051-a9f590198424}, !- Handle
  1.3.1;                                  !- Version Identifier

OS:Material,
  {9fdd055d-7b78-45a8-8221-e3fb31d7d3cd}, !- Handle
  SlabCarpetBareEquivalentMaterial,       !- Name
  Rough,                                  !- Roughness
  0.0254,                                 !- Thickness {m}
  0.346721705324771,                      !- Conductivity {W/m-K}
  40.05,                                  !- Density {kg/m3}
  1214.23;                                !- Specific Heat {J/kg-K}

