
OS:Version,
  {e29b2705-e86a-42c4-8f0e-2a64f1264221}, !- Handle
  1.3.1;                                  !- Version Identifier

OS:Material,
  {b06d49ef-67e8-49fe-9c07-f19f992bbdca}, !- Handle
  SlabCarpetBareEquivalentMaterial,       !- Name
  Rough,                                  !- Roughness
  0.0254,                                 !- Thickness {m}
  0.0866804263311929,                     !- Conductivity {W/m-K}
  40.05,                                  !- Density {kg/m3}
  1214.23;                                !- Specific Heat {J/kg-K}

