
OS:Version,
  {6b000e2f-087d-4884-b8e9-65d26d0be1b5}, !- Handle
  1.3.1;                                  !- Version Identifier

OS:Material,
  {54736a2c-8463-48e9-b2bb-726b2a296e0f}, !- Handle
  SlabCarpetBareEquivalentMaterial,       !- Name
  Rough,                                  !- Roughness
  0.0254,                                 !- Thickness {m}
  0.173360852662385,                      !- Conductivity {W/m-K}
  40.05,                                  !- Density {kg/m3}
  1214.23;                                !- Specific Heat {J/kg-K}

