
OS:Version,
  {d7c04709-446e-4640-aa82-cb179510e8e6}, !- Handle
  1.3.1;                                  !- Version Identifier

OS:Material,
  {abf73cbd-4e14-4d15-bad7-28f5735d40ae}, !- Handle
  Soil_12in,                              !- Name
  Rough,                                  !- Roughness
  0.3048,                                 !- Thickness {m}
  1.731,                                  !- Conductivity {W/m-K}
  1842.3,                                 !- Density {kg/m3}
  418.7;                                  !- Specific Heat {J/kg-K}

