
OS:Version,
  {ebb65b96-f8b1-424e-8f84-198ab315633e}, !- Handle
  1.3.1;                                  !- Version Identifier

OS:Material,
  {10702fe5-b559-4202-9c64-836912f83caa}, !- Handle
  SplineLayer,                            !- Name
  Rough,                                  !- Roughness
  0.0127,                                 !- Thickness {m}
  0.0345205263589113,                     !- Conductivity {W/m-K}
  147.0636,                               !- Density {kg/m3}
  1214.23;                                !- Specific Heat {J/kg-K}

