
OS:Version,
  {cd56302b-92f7-44d9-baf7-3b5c0e6ecc3c}, !- Handle
  1.3.1;                                  !- Version Identifier

OS:Material,
  {9cb46e1c-e62c-4e60-9839-778ca6be1456}, !- Handle
  SplineLayer,                            !- Name
  Rough,                                  !- Roughness
  0.0127,                                 !- Thickness {m}
  0.0310471447697843,                     !- Conductivity {W/m-K}
  147.0636,                               !- Density {kg/m3}
  1214.23;                                !- Specific Heat {J/kg-K}

