
OS:Version,
  {62c3ef51-5b8b-478e-8eb6-f604f6a32494}, !- Handle
  1.3.1;                                  !- Version Identifier

OS:Material,
  {2919444c-da2f-4b25-8fc9-a5bd5ad95a01}, !- Handle
  SplineLayer,                            !- Name
  Rough,                                  !- Roughness
  0.0127,                                 !- Thickness {m}
  0.0308019122044946,                     !- Conductivity {W/m-K}
  147.0636,                               !- Density {kg/m3}
  1214.23;                                !- Specific Heat {J/kg-K}

