
OS:Version,
  {af68553f-0515-4803-ba73-a76a5f4fc98b}, !- Handle
  1.3.1;                                  !- Version Identifier

OS:Material,
  {9bec2c17-0d11-42ff-b509-7c14c18a9b7c}, !- Handle
  SplineLayer,                            !- Name
  Rough,                                  !- Roughness
  0.0127,                                 !- Thickness {m}
  0.0307242451645793,                     !- Conductivity {W/m-K}
  147.0636,                               !- Density {kg/m3}
  1214.23;                                !- Specific Heat {J/kg-K}

