
OS:Version,
  {9606b6e5-c1ce-4647-ac30-bf342013e420}, !- Handle
  1.3.1;                                  !- Version Identifier

OS:Material,
  {4d3e6462-0126-43f1-902d-c0dfb7409f14}, !- Handle
  StudandCavity,                          !- Name
  Rough,                                  !- Roughness
  0.0889,                                 !- Thickness {m}
  0.0569424553543112,                     !- Conductivity {W/m-K}
  161.735759427773,                       !- Density {kg/m3}
  1179.45713225292;                       !- Specific Heat {J/kg-K}

