
OS:Version,
  {f375f974-9365-4fe5-8063-1b728f2951e1}, !- Handle
  1.3.1;                                  !- Version Identifier

OS:Material,
  {38e58ea0-7010-42d8-8b96-b5939fb52d74}, !- Handle
  StudandCavity,                          !- Name
  Rough,                                  !- Roughness
  0.0889,                                 !- Thickness {m}
  0.0513348688516054,                     !- Conductivity {W/m-K}
  148.39326,                              !- Density {kg/m3}
  1174.03696966425;                       !- Specific Heat {J/kg-K}

