
OS:Version,
  {05bc4e1c-5b48-43f1-829f-f029ada8f918}, !- Handle
  1.3.1;                                  !- Version Identifier

OS:Material,
  {ce9875d8-af02-48b2-8433-11fa6c9050c3}, !- Handle
  StudandCavity,                          !- Name
  Rough,                                  !- Roughness
  0.1397,                                 !- Thickness {m}
  0.0591464135597939,                     !- Conductivity {W/m-K}
  148.39326,                              !- Density {kg/m3}
  1174.03696966425;                       !- Specific Heat {J/kg-K}

