
OS:Version,
  {52eb2282-7998-4be5-bdcc-77bd19b9db2e}, !- Handle
  1.3.1;                                  !- Version Identifier

OS:Material,
  {f5ede53c-61db-42a7-b9f6-8c2275193847}, !- Handle
  StudandCavity,                          !- Name
  Rough,                                  !- Roughness
  0.1397,                                 !- Thickness {m}
  0.0660882004459109,                     !- Conductivity {W/m-K}
  146.659084512211,                       !- Density {kg/m3}
  1175.52881850606;                       !- Specific Heat {J/kg-K}

