
OS:Version,
  {7f66ce2f-78d7-4401-b95a-a3c54f6d03a7}, !- Handle
  1.3.1;                                  !- Version Identifier

OS:Material,
  {46bb204c-36e7-4f4f-8253-95e8e5997b33}, !- Handle
  StudandCavity,                          !- Name
  Rough,                                  !- Roughness
  0.0889,                                 !- Thickness {m}
  0.0474350163340529,                     !- Conductivity {W/m-K}
  148.39326,                              !- Density {kg/m3}
  1174.03696966425;                       !- Specific Heat {J/kg-K}

