
OS:Version,
  {fa43a89b-f91a-4342-b842-0eb871f8727d}, !- Handle
  1.3.1;                                  !- Version Identifier

OS:Material,
  {83f1e2bd-57d3-4449-9228-93ba9a15ce0e}, !- Handle
  StudandCavity,                          !- Name
  Rough,                                  !- Roughness
  0.0889,                                 !- Thickness {m}
  0.049818917563541,                      !- Conductivity {W/m-K}
  162.40275,                              !- Density {kg/m3}
  1178.91670776818;                       !- Specific Heat {J/kg-K}

