
OS:Version,
  {2c08f5b1-90bb-40ae-a98a-e7769aca6c5b}, !- Handle
  1.3.1;                                  !- Version Identifier

OS:Material,
  {1bce43d6-5a48-4ac6-9c7a-167c9edee3d9}, !- Handle
  StudandCavity,                          !- Name
  Rough,                                  !- Roughness
  0.0889,                                 !- Thickness {m}
  0.0525106804009244,                     !- Conductivity {W/m-K}
  161.735759427773,                       !- Density {kg/m3}
  1179.45713225292;                       !- Specific Heat {J/kg-K}

