
OS:Version,
  {608e59e8-be59-4d2a-9c77-3fddd6e0acaf}, !- Handle
  1.3.1;                                  !- Version Identifier

OS:Material,
  {f670fa5e-ca61-4f95-b260-6fe84f52d892}, !- Handle
  StudandCavity,                          !- Name
  Rough,                                  !- Roughness
  0.0889,                                 !- Thickness {m}
  0.0744829291443118,                     !- Conductivity {W/m-K}
  162.40275,                              !- Density {kg/m3}
  1178.91670776818;                       !- Specific Heat {J/kg-K}

