
OS:Version,
  {7f466078-9185-4667-b396-8e3cc9234429}, !- Handle
  1.3.1;                                  !- Version Identifier

OS:Material,
  {883d9f05-5770-4a4e-a83a-4f649476372c}, !- Handle
  StudandCavity,                          !- Name
  Rough,                                  !- Roughness
  0.0889,                                 !- Thickness {m}
  0.0583353854451465,                     !- Conductivity {W/m-K}
  148.39326,                              !- Density {kg/m3}
  1174.03696966425;                       !- Specific Heat {J/kg-K}

