
OS:Version,
  {e8634369-0d66-4913-9d1c-a0ef7cb0e43b}, !- Handle
  1.3.1;                                  !- Version Identifier

OS:Material,
  {7d932de4-149e-4cec-82fa-bd5e00dcb72c}, !- Handle
  StudandCavity,                          !- Name
  Rough,                                  !- Roughness
  0.0889,                                 !- Thickness {m}
  0.0576719384502865,                     !- Conductivity {W/m-K}
  148.39326,                              !- Density {kg/m3}
  1174.03696966425;                       !- Specific Heat {J/kg-K}

