
OS:Version,
  {809d7922-c896-4902-be08-b85a3edaab80}, !- Handle
  1.3.1;                                  !- Version Identifier

OS:Material,
  {5718c1a7-f9e5-4119-9949-8764281be38a}, !- Handle
  StudandCavity,                          !- Name
  Rough,                                  !- Roughness
  0.0889,                                 !- Thickness {m}
  0.0583353854451465,                     !- Conductivity {W/m-K}
  148.39326,                              !- Density {kg/m3}
  1174.03696966425;                       !- Specific Heat {J/kg-K}

