
OS:Version,
  {56e0ed47-47c8-437e-a7de-9d1dee4c0ef2}, !- Handle
  1.3.1;                                  !- Version Identifier

OS:Material,
  {86598e6c-4761-4b48-b2c4-094dc93a64a9}, !- Handle
  StudandCavity,                          !- Name
  Rough,                                  !- Roughness
  0.1397,                                 !- Thickness {m}
  0.0491910229788441,                     !- Conductivity {W/m-K}
  146.659084512211,                       !- Density {kg/m3}
  1175.52881850606;                       !- Specific Heat {J/kg-K}

