
OS:Version,
  {97831fc1-510a-401c-81c7-1606573ad413}, !- Handle
  1.3.1;                                  !- Version Identifier

OS:Material,
  {781a3420-d7c0-40ba-bea3-30e8e3fd7de8}, !- Handle
  StudandCavity,                          !- Name
  Rough,                                  !- Roughness
  0.0889,                                 !- Thickness {m}
  0.0466208548261082,                     !- Conductivity {W/m-K}
  148.39326,                              !- Density {kg/m3}
  1174.03696966425;                       !- Specific Heat {J/kg-K}

