
OS:Version,
  {fb16f015-97ee-4e12-8945-f3500cf79209}, !- Handle
  1.3.1;                                  !- Version Identifier

OS:Material,
  {ed434ee8-411b-4455-9a22-0e939ddbe98f}, !- Handle
  StudandCavity,                          !- Name
  Rough,                                  !- Roughness
  0.1397,                                 !- Thickness {m}
  0.0632406702576238,                     !- Conductivity {W/m-K}
  147.699589804884,                       !- Density {kg/m3}
  1174.62950532575;                       !- Specific Heat {J/kg-K}

