
OS:Version,
  {9d230976-9c43-4bd6-b9af-03367d8637f1}, !- Handle
  1.3.1;                                  !- Version Identifier

OS:Material,
  {1777bc85-51e2-4989-9859-48686f133327}, !- Handle
  StudandAirFloor,                        !- Name
  Rough,                                  !- Roughness
  0.0889,                                 !- Thickness {m}
  0.448792750636363,                      !- Conductivity {W/m-K}
  67.6793368108661,                       !- Density {kg/m3}
  1211.02495616275;                       !- Specific Heat {J/kg-K}

