
OS:Version,
  {64f23cdc-70cb-474e-a202-8f5c60d59958}, !- Handle
  1.3.1;                                  !- Version Identifier

OS:Material,
  {e3b0f6ac-06b5-46c6-8713-6120255201c8}, !- Handle
  StudandCavity,                          !- Name
  Rough,                                  !- Roughness
  0.0889,                                 !- Thickness {m}
  0.0520936039836723,                     !- Conductivity {W/m-K}
  148.39326,                              !- Density {kg/m3}
  1174.03696966425;                       !- Specific Heat {J/kg-K}

