
OS:Version,
  {fdf6386c-b1ee-46f3-bc0d-ae9125523aee}, !- Handle
  1.3.1;                                  !- Version Identifier

OS:Material,
  {7cc48118-55ad-401c-a58c-9c80b5ace6d2}, !- Handle
  StudandCavity,                          !- Name
  Rough,                                  !- Roughness
  0.1397,                                 !- Thickness {m}
  0.0556950698320778,                     !- Conductivity {W/m-K}
  148.39326,                              !- Density {kg/m3}
  1174.03696966425;                       !- Specific Heat {J/kg-K}

