
OS:Version,
  {c8347179-2714-4560-8109-f9878f446761}, !- Handle
  1.3.1;                                  !- Version Identifier

OS:Material,
  {cc5d8219-a148-4be2-bfa8-e8e6eb9f58fb}, !- Handle
  StudandCavity,                          !- Name
  Rough,                                  !- Roughness
  0.1397,                                 !- Thickness {m}
  0.0556950698320778,                     !- Conductivity {W/m-K}
  148.39326,                              !- Density {kg/m3}
  1174.03696966425;                       !- Specific Heat {J/kg-K}

