
OS:Version,
  {a872685d-c580-4e22-9535-3a0dc4ad627d}, !- Handle
  1.3.1;                                  !- Version Identifier

OS:Material,
  {e21fb558-fc1d-47c5-8ff4-db85d028398c}, !- Handle
  StudandCavity,                          !- Name
  Rough,                                  !- Roughness
  0.0889,                                 !- Thickness {m}
  0.0513348688516054,                     !- Conductivity {W/m-K}
  148.39326,                              !- Density {kg/m3}
  1174.03696966425;                       !- Specific Heat {J/kg-K}

