
OS:Version,
  {2afa558d-9015-4c41-9c90-f2561d46f6d4}, !- Handle
  1.3.1;                                  !- Version Identifier

OS:Material,
  {9ecd5f1a-fbf6-462f-877b-985b3c9589ea}, !- Handle
  StudandCavity,                          !- Name
  Rough,                                  !- Roughness
  0.0889,                                 !- Thickness {m}
  0.0474350163340529,                     !- Conductivity {W/m-K}
  148.39326,                              !- Density {kg/m3}
  1174.03696966425;                       !- Specific Heat {J/kg-K}

