
OS:Version,
  {e2ad14d0-761e-4627-898a-31f85ddae381}, !- Handle
  1.3.1;                                  !- Version Identifier

OS:Material,
  {ea207b0c-cf8d-4f15-8cc1-5c425187b035}, !- Handle
  StudandCavity,                          !- Name
  Rough,                                  !- Roughness
  0.0889,                                 !- Thickness {m}
  0.0566600157170419,                     !- Conductivity {W/m-K}
  160.735273569433,                       !- Density {kg/m3}
  1180.27617856933;                       !- Specific Heat {J/kg-K}

