
OS:Version,
  {03220e3f-a288-4648-9491-fadaba472671}, !- Handle
  1.3.1;                                  !- Version Identifier

OS:Material,
  {67dfbfbd-96db-43b4-aea1-e37acd073114}, !- Handle
  StudandCavity,                          !- Name
  Rough,                                  !- Roughness
  0.0889,                                 !- Thickness {m}
  0.06109877377162,                       !- Conductivity {W/m-K}
  160.735273569433,                       !- Density {kg/m3}
  1180.27617856933;                       !- Specific Heat {J/kg-K}

