
OS:Version,
  {0ef70d45-7c47-4daa-be02-0b3722557124}, !- Handle
  1.3.1;                                  !- Version Identifier

OS:Material,
  {a83800cf-2fbb-49c9-b2bf-c5f1a57e085c}, !- Handle
  StudandAirRoof,                         !- Name
  Rough,                                  !- Roughness
  0.0889,                                 !- Thickness {m}
  3.2214781383103,                        !- Conductivity {W/m-K}
  57.4503560478975,                       !- Density {kg/m3}
  1210.36750350924;                       !- Specific Heat {J/kg-K}

