
OS:Version,
  {3960a5c5-8a93-4a3b-9a8e-40a0d66ec69b}, !- Handle
  1.3.1;                                  !- Version Identifier

OS:Material,
  {f643d416-ac9c-431b-8c32-f7a063e510fb}, !- Handle
  StudandCavity,                          !- Name
  Rough,                                  !- Roughness
  0.1397,                                 !- Thickness {m}
  0.0627120998898888,                     !- Conductivity {W/m-K}
  146.659084512211,                       !- Density {kg/m3}
  1175.52881850606;                       !- Specific Heat {J/kg-K}

