
OS:Version,
  {50155c61-adc5-4851-b01c-608f45a189ef}, !- Handle
  1.3.1;                                  !- Version Identifier

OS:Material,
  {5105d7bd-427d-4a12-b700-f5123bbde947}, !- Handle
  StudandCavity,                          !- Name
  Rough,                                  !- Roughness
  0.1397,                                 !- Thickness {m}
  0.0695550628680399,                     !- Conductivity {W/m-K}
  146.659084512211,                       !- Density {kg/m3}
  1175.52881850606;                       !- Specific Heat {J/kg-K}

