
OS:Version,
  {3e9e75a6-38fc-4ff8-be75-c99a4fb5ac4e}, !- Handle
  1.3.1;                                  !- Version Identifier

OS:Material,
  {ff418430-d31a-4e11-90ee-1fc3ba58280d}, !- Handle
  StudandCavity,                          !- Name
  Rough,                                  !- Roughness
  0.0889,                                 !- Thickness {m}
  0.0520936039836723,                     !- Conductivity {W/m-K}
  148.39326,                              !- Density {kg/m3}
  1174.03696966425;                       !- Specific Heat {J/kg-K}

