
OS:Version,
  {60ef29e9-5188-4849-93a0-372685caa860}, !- Handle
  1.3.1;                                  !- Version Identifier

OS:Material,
  {ec05d9d5-9c55-44f0-b2dc-5732ccc089b8}, !- Handle
  StudandCavity,                          !- Name
  Rough,                                  !- Roughness
  0.0889,                                 !- Thickness {m}
  0.0569424553543112,                     !- Conductivity {W/m-K}
  161.735759427773,                       !- Density {kg/m3}
  1179.45713225292;                       !- Specific Heat {J/kg-K}

