
OS:Version,
  {6ab1bf38-c1f0-45c0-98ea-3a3093825a89}, !- Handle
  1.3.1;                                  !- Version Identifier

OS:Material,
  {051dc19a-1734-406b-801a-6f372a747f17}, !- Handle
  StudandCavity,                          !- Name
  Rough,                                  !- Roughness
  0.0889,                                 !- Thickness {m}
  0.0576719384502865,                     !- Conductivity {W/m-K}
  148.39326,                              !- Density {kg/m3}
  1174.03696966425;                       !- Specific Heat {J/kg-K}

