
OS:Version,
  {a52dcf5b-9e81-4813-a2b2-a7becd4830b9}, !- Handle
  1.3.1;                                  !- Version Identifier

OS:Material,
  {e3c929c7-7915-4eaf-903d-5f61b92eaf5f}, !- Handle
  StudandCavity,                          !- Name
  Rough,                                  !- Roughness
  0.0889,                                 !- Thickness {m}
  0.0542450177597404,                     !- Conductivity {W/m-K}
  162.40275,                              !- Density {kg/m3}
  1178.91670776818;                       !- Specific Heat {J/kg-K}

