
OS:Version,
  {0c19be18-0730-4f11-b685-5cc5f9565cd0}, !- Handle
  1.3.1;                                  !- Version Identifier

OS:Material,
  {08c36d92-101a-40f6-a47b-5d4c3efcf1bc}, !- Handle
  StudandCavity,                          !- Name
  Rough,                                  !- Roughness
  0.1397,                                 !- Thickness {m}
  0.507065952738793,                      !- Conductivity {W/m-K}
  113.709750244224,                       !- Density {kg/m3}
  1212.51971804783;                       !- Specific Heat {J/kg-K}

