
OS:Version,
  {5ceb39ee-aa7d-4b6f-a600-3a6cf6cf8d48}, !- Handle
  1.3.1;                                  !- Version Identifier

OS:Material,
  {e6a4e44d-a4d2-495d-af05-a84106621744}, !- Handle
  StudandCavity,                          !- Name
  Rough,                                  !- Roughness
  0.0889,                                 !- Thickness {m}
  0.0813466620025512,                     !- Conductivity {W/m-K}
  160.735273569433,                       !- Density {kg/m3}
  1180.27617856933;                       !- Specific Heat {J/kg-K}

