
OS:Version,
  {b33551ff-9ace-4525-bc26-278936ebd122}, !- Handle
  1.3.1;                                  !- Version Identifier

OS:Material,
  {2765504c-61e4-4e41-8ff6-900b70b866d9}, !- Handle
  UAAdditionalCeilingIns,                 !- Name
  Rough,                                  !- Roughness
  0.196341999178203,                      !- Thickness {m}
  0.0539975833333333,                     !- Conductivity {W/m-K}
  16.02,                                  !- Density {kg/m3}
  1046.75;                                !- Specific Heat {J/kg-K}

