
OS:Version,
  {a49603b4-bfc6-4e2a-ab92-13f186d25a12}, !- Handle
  1.3.1;                                  !- Version Identifier

OS:Material,
  {f88f847c-5d8f-4009-abf4-825a65e7a3a6}, !- Handle
  UAAdditionalCeilingIns,                 !- Name
  Rough,                                  !- Roughness
  0.152399999304802,                      !- Thickness {m}
  0.054815,                               !- Conductivity {W/m-K}
  16.02,                                  !- Density {kg/m3}
  1046.75;                                !- Specific Heat {J/kg-K}

