
OS:Version,
  {f68254fa-2570-4c93-b39b-98293c801ef5}, !- Handle
  1.3.1;                                  !- Version Identifier

OS:Material,
  {2f86b6b6-b239-492e-8317-8c3747469cbf}, !- Handle
  UAAdditionalCeilingIns,                 !- Name
  Rough,                                  !- Roughness
  0.128269999374322,                      !- Thickness {m}
  0.04111125,                             !- Conductivity {W/m-K}
  16.02,                                  !- Density {kg/m3}
  1046.75;                                !- Specific Heat {J/kg-K}

