
OS:Version,
  {1a49fce0-e501-4e02-a924-ecd3495fd547}, !- Handle
  1.3.1;                                  !- Version Identifier

OS:Material,
  {a73c1c50-160d-4e87-99f9-fbb6448648ed}, !- Handle
  UAAdditionalCeilingIns,                 !- Name
  Rough,                                  !- Roughness
  0.0596899995719047,                     !- Thickness {m}
  0.0222069078947368,                     !- Conductivity {W/m-K}
  16.02,                                  !- Density {kg/m3}
  1046.75;                                !- Specific Heat {J/kg-K}

