
OS:Version,
  {cedf72f8-3ffe-4e81-9963-1e59569220dd}, !- Handle
  1.3.1;                                  !- Version Identifier

OS:Material,
  {82ec3b3c-acdd-4167-a8d8-24f4402ac73d}, !- Handle
  UAAdditionalCeilingIns,                 !- Name
  Rough,                                  !- Roughness
  0.102615999448232,                      !- Thickness {m}
  0.0221968367346939,                     !- Conductivity {W/m-K}
  16.02,                                  !- Density {kg/m3}
  1046.75;                                !- Specific Heat {J/kg-K}

