
OS:Version,
  {39df4385-b480-490f-8ab3-309950d77a10}, !- Handle
  1.3.1;                                  !- Version Identifier

OS:Material,
  {ece1598a-4882-490d-8c29-b5bed83d7b47}, !- Handle
  UAAdditionalCeilingIns,                 !- Name
  Rough,                                  !- Roughness
  0.320039998821823,                      !- Thickness {m}
  0.0527823863636364,                     !- Conductivity {W/m-K}
  16.02,                                  !- Density {kg/m3}
  1046.75;                                !- Specific Heat {J/kg-K}

