
OS:Version,
  {5fbcc0f5-f6e8-492d-9705-e80f6e7a90d8}, !- Handle
  1.3.1;                                  !- Version Identifier

OS:Material,
  {5eb1185f-37aa-4638-a6df-b181692bf144}, !- Handle
  UAAdditionalCeilingIns,                 !- Name
  Rough,                                  !- Roughness
  0.364215197601292,                      !- Thickness {m}
  0.0525187755102041,                     !- Conductivity {W/m-K}
  16.02,                                  !- Density {kg/m3}
  1046.75;                                !- Specific Heat {J/kg-K}

