
OS:Version,
  {d984489a-0d82-463c-8c9b-5137f95c578b}, !- Handle
  1.3.1;                                  !- Version Identifier

OS:Material,
  {3fcc103a-abac-4e8d-b686-5c4ed80ef739}, !- Handle
  UAAdditionalCeilingIns,                 !- Name
  Rough,                                  !- Roughness
  0.099313999457746,                      !- Thickness {m}
  0.0562575,                              !- Conductivity {W/m-K}
  16.02,                                  !- Density {kg/m3}
  1046.75;                                !- Specific Heat {J/kg-K}

