
OS:Version,
  {85bbb0d9-4829-4bc4-b258-e2990daa3040}, !- Handle
  1.3.1;                                  !- Version Identifier

OS:Material,
  {99b7c3cb-a38f-4daa-aa23-924cf7f511e1}, !- Handle
  UAAdditionalCeilingIns,                 !- Name
  Rough,                                  !- Roughness
  0.215899999121855,                      !- Thickness {m}
  0.0455526315789474,                     !- Conductivity {W/m-K}
  16.02,                                  !- Density {kg/m3}
  1046.75;                                !- Specific Heat {J/kg-K}

