
OS:Version,
  {cce3b5f4-f0c2-4057-9c44-2843920a6018}, !- Handle
  1.3.1;                                  !- Version Identifier

OS:Material,
  {f05e67d2-22d2-48b9-9919-23d520ace0f0}, !- Handle
  UAAdditionalCeilingIns,                 !- Name
  Rough,                                  !- Roughness
  0.311149998847435,                      !- Thickness {m}
  0.0463660714285714,                     !- Conductivity {W/m-K}
  16.02,                                  !- Density {kg/m3}
  1046.75;                                !- Specific Heat {J/kg-K}

