
OS:Version,
  {4891b2f6-1b81-426b-9b2b-0582b23ccb19}, !- Handle
  1.3.1;                                  !- Version Identifier

OS:Material,
  {490e8632-9313-4d59-b16d-578495828e9f}, !- Handle
  UATrussandIns,                          !- Name
  Rough,                                  !- Roughness
  0.0889,                                 !- Thickness {m}
  0.0564573282751165,                     !- Conductivity {W/m-K}
  50.7834,                                !- Density {kg/m3}
  1165.09548895899;                       !- Specific Heat {J/kg-K}

