
OS:Version,
  {85678bc7-5702-4d73-a6ef-ca4fc9b2bdd2}, !- Handle
  1.3.1;                                  !- Version Identifier

OS:Material,
  {92ae4b8a-cac2-4ac0-8438-bddf79134b7b}, !- Handle
  UATrussandIns,                          !- Name
  Rough,                                  !- Roughness
  0.0889,                                 !- Thickness {m}
  0.0551227900794283,                     !- Conductivity {W/m-K}
  50.7834,                                !- Density {kg/m3}
  1165.09548895899;                       !- Specific Heat {J/kg-K}

