
OS:Version,
  {0fc522d0-86b8-4b21-9ba9-db1228fa849e}, !- Handle
  1.3.1;                                  !- Version Identifier

OS:Material,
  {c670e1dc-b6ce-40a1-b398-5f0ac0a477aa}, !- Handle
  UATrussandIns,                          !- Name
  Rough,                                  !- Roughness
  0.0889,                                 !- Thickness {m}
  0.0313822328790861,                     !- Conductivity {W/m-K}
  5.32366503060606,                       !- Density {kg/m3}
  1132.24036820536;                       !- Specific Heat {J/kg-K}

