
OS:Version,
  {3db9f0fc-ddc5-4c4a-ba17-123b0bbd9e9d}, !- Handle
  1.3.1;                                  !- Version Identifier

OS:Material,
  {c4dd0dff-9e1d-4bc8-acfd-f662bde53e23}, !- Handle
  UATrussandIns,                          !- Name
  Rough,                                  !- Roughness
  0.0889,                                 !- Thickness {m}
  0.0543448855247979,                     !- Conductivity {W/m-K}
  50.7834,                                !- Density {kg/m3}
  1165.09548895899;                       !- Specific Heat {J/kg-K}

