
OS:Version,
  {adb4e098-6800-4367-8f8f-dd8d5c7c4be2}, !- Handle
  1.3.1;                                  !- Version Identifier

OS:Material,
  {ed6b9af9-9c40-481d-87fc-0091cbb25b91}, !- Handle
  UATrussandIns,                          !- Name
  Rough,                                  !- Roughness
  0.0889,                                 !- Thickness {m}
  0.0636607507175526,                     !- Conductivity {W/m-K}
  50.7834,                                !- Density {kg/m3}
  1165.09548895899;                       !- Specific Heat {J/kg-K}

