
OS:Version,
  {a23cb1d8-f505-40f2-9cae-371125fa66d7}, !- Handle
  1.3.1;                                  !- Version Identifier

OS:Material,
  {e2755174-5238-474d-be54-498c29fe640c}, !- Handle
  UATrussandIns,                          !- Name
  Rough,                                  !- Roughness
  0.0889,                                 !- Thickness {m}
  0.0252796719012636,                     !- Conductivity {W/m-K}
  50.7834,                                !- Density {kg/m3}
  1165.09548895899;                       !- Specific Heat {J/kg-K}

