
OS:Version,
  {ca833e9f-c5e8-4be9-ac71-b62348dca783}, !- Handle
  1.3.1;                                  !- Version Identifier

OS:Material,
  {45b0eda6-661d-425f-b6bd-35a195580a54}, !- Handle
  UATrussandIns,                          !- Name
  Rough,                                  !- Roughness
  0.0889,                                 !- Thickness {m}
  0.0427165743424525,                     !- Conductivity {W/m-K}
  50.7834,                                !- Density {kg/m3}
  1165.09548895899;                       !- Specific Heat {J/kg-K}

