
OS:Version,
  {c637d0c8-da82-49da-8111-4cca8738fe73}, !- Handle
  1.3.1;                                  !- Version Identifier

OS:Material,
  {5b3dc889-0ae6-4fd1-8576-2b9ff0f7f833}, !- Handle
  UATrussandIns,                          !- Name
  Rough,                                  !- Roughness
  0.0889,                                 !- Thickness {m}
  0.0479613326902414,                     !- Conductivity {W/m-K}
  50.7834,                                !- Density {kg/m3}
  1165.09548895899;                       !- Specific Heat {J/kg-K}

