
OS:Version,
  {78236b65-703f-43f4-bc2f-f44b729ade1f}, !- Handle
  1.3.1;                                  !- Version Identifier

OS:Material,
  {9cf81477-1624-4e96-a1e8-f3a82d3fae17}, !- Handle
  UATrussandIns,                          !- Name
  Rough,                                  !- Roughness
  0.0889,                                 !- Thickness {m}
  0.0555642616741477,                     !- Conductivity {W/m-K}
  50.7834,                                !- Density {kg/m3}
  1165.09548895899;                       !- Specific Heat {J/kg-K}

