
OS:Version,
  {17f70f76-1177-4e1e-913a-2f7489e26dd7}, !- Handle
  1.3.1;                                  !- Version Identifier

OS:Material,
  {8a6b4430-83fd-446f-bbfc-0205cc5512d3}, !- Handle
  UATrussandIns,                          !- Name
  Rough,                                  !- Roughness
  0.0889,                                 !- Thickness {m}
  0.0436673814273406,                     !- Conductivity {W/m-K}
  50.7834,                                !- Density {kg/m3}
  1165.09548895899;                       !- Specific Heat {J/kg-K}

