
OS:Version,
  {74bbf0c6-18a3-49f5-81ca-49542d9599c6}, !- Handle
  1.3.1;                                  !- Version Identifier

OS:Material,
  {5fca18fb-27c9-4fbf-9176-70faff1f1052}, !- Handle
  UATrussandIns,                          !- Name
  Rough,                                  !- Roughness
  0.0889,                                 !- Thickness {m}
  0.0450003463792387,                     !- Conductivity {W/m-K}
  50.7834,                                !- Density {kg/m3}
  1165.09548895899;                       !- Specific Heat {J/kg-K}

