
OS:Version,
  {c8a85408-b2e8-4e7e-8100-d3360558ac1c}, !- Handle
  1.3.1;                                  !- Version Identifier

OS:Material,
  {dd76bc52-a8b5-463d-9a7f-4e6377b508dc}, !- Handle
  UATrussandIns,                          !- Name
  Rough,                                  !- Roughness
  0.0889,                                 !- Thickness {m}
  0.043019986492712,                      !- Conductivity {W/m-K}
  50.7834,                                !- Density {kg/m3}
  1165.09548895899;                       !- Specific Heat {J/kg-K}

