
OS:Version,
  {337c286a-d03e-40b3-8901-3b8e28afb0a8}, !- Handle
  1.3.1;                                  !- Version Identifier

OS:Material,
  {1f817f93-bc2a-48e3-818d-dbff179432b4}, !- Handle
  UATrussandIns,                          !- Name
  Rough,                                  !- Roughness
  0.0889,                                 !- Thickness {m}
  0.0499053035312583,                     !- Conductivity {W/m-K}
  5.32366503060606,                       !- Density {kg/m3}
  1132.24036820536;                       !- Specific Heat {J/kg-K}

