
OS:Version,
  {c972e9fa-542b-4722-bfe4-02f55d842021}, !- Handle
  1.3.1;                                  !- Version Identifier

OS:Material,
  {ef2610d9-c594-421b-8d31-5cda16c296c2}, !- Handle
  UATrussandIns,                          !- Name
  Rough,                                  !- Roughness
  0.0889,                                 !- Thickness {m}
  0.0482104448025467,                     !- Conductivity {W/m-K}
  50.7834,                                !- Density {kg/m3}
  1165.09548895899;                       !- Specific Heat {J/kg-K}

