
OS:Version,
  {98e69c5e-f3eb-4113-ae8c-ab5142290f56}, !- Handle
  1.3.1;                                  !- Version Identifier

OS:Material,
  {6fafe2e0-a096-4e90-a615-f52d201a2cb2}, !- Handle
  UATrussandIns,                          !- Name
  Rough,                                  !- Roughness
  0.0889,                                 !- Thickness {m}
  0.024069789258975,                      !- Conductivity {W/m-K}
  50.7834,                                !- Density {kg/m3}
  1165.09548895899;                       !- Specific Heat {J/kg-K}

