
OS:Version,
  {44a269e9-7074-4aba-83a1-fe241baf7996}, !- Handle
  1.3.1;                                  !- Version Identifier

OS:Material,
  {6750a688-19d8-4e24-9989-75462137ebc1}, !- Handle
  UATrussandIns,                          !- Name
  Rough,                                  !- Roughness
  0.0889,                                 !- Thickness {m}
  0.057345344640843,                      !- Conductivity {W/m-K}
  50.7834,                                !- Density {kg/m3}
  1165.09548895899;                       !- Specific Heat {J/kg-K}

