
OS:Version,
  {b271460b-9a1a-49d0-96f3-3db86ce8e1bf}, !- Handle
  1.3.1;                                  !- Version Identifier

OS:Material,
  {fa724c5d-e845-4607-8686-0c630d521b03}, !- Handle
  UATrussandIns,                          !- Name
  Rough,                                  !- Roughness
  0.0889,                                 !- Thickness {m}
  0.0454593043670834,                     !- Conductivity {W/m-K}
  50.7834,                                !- Density {kg/m3}
  1165.09548895899;                       !- Specific Heat {J/kg-K}

