
OS:Version,
  {e674b3ac-7513-4aa3-93ff-eb68a8d18e0c}, !- Handle
  1.3.1;                                  !- Version Identifier

OS:Material,
  {083513b2-3f7b-4c94-8aef-af220555a81c}, !- Handle
  UATrussandIns,                          !- Name
  Rough,                                  !- Roughness
  0.0889,                                 !- Thickness {m}
  0.0589138819506148,                     !- Conductivity {W/m-K}
  50.7834,                                !- Density {kg/m3}
  1165.09548895899;                       !- Specific Heat {J/kg-K}

