
OS:Version,
  {d4322b5e-e892-4da4-8754-dd266b010725}, !- Handle
  1.3.1;                                  !- Version Identifier

OS:Material,
  {45207fc1-7ecb-4f04-bf15-befa9d2302b9}, !- Handle
  UATrussandIns,                          !- Name
  Rough,                                  !- Roughness
  0.0889,                                 !- Thickness {m}
  0.0421602425983523,                     !- Conductivity {W/m-K}
  50.7834,                                !- Density {kg/m3}
  1165.09548895899;                       !- Specific Heat {J/kg-K}

