
OS:Version,
  {b1f4dd63-c67a-45e4-b2bf-d6a7a696c2aa}, !- Handle
  1.3.1;                                  !- Version Identifier

OS:Material,
  {1336a4ee-4c0f-4288-8143-b2bf51018ef4}, !- Handle
  UATrussandIns,                          !- Name
  Rough,                                  !- Roughness
  0.0889,                                 !- Thickness {m}
  0.0486803403081522,                     !- Conductivity {W/m-K}
  50.7834,                                !- Density {kg/m3}
  1165.09548895899;                       !- Specific Heat {J/kg-K}

