
OS:Version,
  {fe1cb724-3012-4b37-a3cb-adb2af59ffa5}, !- Handle
  1.3.1;                                  !- Version Identifier

OS:Material,
  {2e787d2f-a1a2-410d-94fb-3c5fa25560a3}, !- Handle
  UATrussandIns,                          !- Name
  Rough,                                  !- Roughness
  0.0889,                                 !- Thickness {m}
  0.0582481197547514,                     !- Conductivity {W/m-K}
  50.7834,                                !- Density {kg/m3}
  1165.09548895899;                       !- Specific Heat {J/kg-K}

