
OS:Version,
  {cff9dc60-beb4-4a10-8146-7e266eede4bf}, !- Handle
  1.3.1;                                  !- Version Identifier

OS:Material:NoMass,
  {1c82c9ac-d56b-4e65-8617-9ad28f0e4943}, !- Handle
  UFBaseWall_FicR_Ceiling_R_38_Fiberglass_Batt, !- Name
  Rough,                                  !- Roughness
  0.511257279809397;                      !- Thermal Resistance {m2-K/W}

