
OS:Version,
  {cfab707d-8688-492e-a53e-172c2a8b643e}, !- Handle
  1.3.1;                                  !- Version Identifier

OS:Material:NoMass,
  {84368ded-445a-4581-84e2-d592780e755a}, !- Handle
  UFBaseFloor_FicR_Half_Wall_R_10_XPS,    !- Name
  Rough,                                  !- Roughness
  176.1;                                  !- Thermal Resistance {m2-K/W}

