
OS:Version,
  {82c9f65e-f87e-485b-84e7-bff9090d34a9}, !- Handle
  1.3.1;                                  !- Version Identifier

OS:Material:NoMass,
  {3e897387-0640-4af1-8487-e3e535cba8c7}, !- Handle
  UFBaseFloor_FicR_Half_Wall_R_12_Polyiso, !- Name
  Rough,                                  !- Roughness
  176.1;                                  !- Thermal Resistance {m2-K/W}

