
OS:Version,
  {4dad1fbb-b61a-42d7-b04e-51a070a6c41a}, !- Handle
  1.3.1;                                  !- Version Identifier

OS:Material,
  {96d09721-c9bc-4779-ab58-824a6863de1d}, !- Handle
  UFBaseWallIns,                          !- Name
  Rough,                                  !- Roughness
  0.0310896,                              !- Thickness {m}
  0.029427,                               !- Conductivity {W/m-K}
  32.04,                                  !- Density {kg/m3}
  1214.23;                                !- Specific Heat {J/kg-K}

