
OS:Version,
  {b193e7d2-8089-45d2-be30-58ae78c10e65}, !- Handle
  1.3.1;                                  !- Version Identifier

OS:Material:NoMass,
  {d688df4a-cf7c-48a9-8949-7f40905fdf4a}, !- Handle
  UFBaseFloor_FicR_Whole_Wall_R_6_Polyiso, !- Name
  Rough,                                  !- Roughness
  176.1;                                  !- Thermal Resistance {m2-K/W}

