
OS:Version,
  {56d2eda9-8d24-45ef-8a14-54ab435d693a}, !- Handle
  1.3.1;                                  !- Version Identifier

OS:Material:NoMass,
  {79aa4365-cdb8-426a-9221-f69985b1f52c}, !- Handle
  UFBaseWall_FicR_Half_Wall_R_10_XPS,     !- Name
  Rough,                                  !- Roughness
  0.798334450914941;                      !- Thermal Resistance {m2-K/W}

