
OS:Version,
  {137268a0-72b1-4bb3-a68c-26cdba636cb8}, !- Handle
  1.3.1;                                  !- Version Identifier

OS:Material,
  {6053daca-5693-494c-9a96-c6487f0749b5}, !- Handle
  UFBaseWallIns,                          !- Name
  Rough,                                  !- Roughness
  0.025908,                               !- Thickness {m}
  0.029427,                               !- Conductivity {W/m-K}
  32.04,                                  !- Density {kg/m3}
  1214.23;                                !- Specific Heat {J/kg-K}

