
OS:Version,
  {44c03d44-6af7-4706-ace8-5352394dc3ee}, !- Handle
  1.3.1;                                  !- Version Identifier

OS:Material:NoMass,
  {be27fd64-483b-498a-8c99-f8f0a94c9fd7}, !- Handle
  UFBaseWall_FicR_Whole_Wall_R_5_XPS,     !- Name
  Rough,                                  !- Roughness
  0.22490140310355;                       !- Thermal Resistance {m2-K/W}

