
OS:Version,
  {f4dd5dc6-7753-4744-9cae-451be162ba74}, !- Handle
  1.3.1;                                  !- Version Identifier

OS:Material,
  {ee4674f7-03e3-4d57-8346-dc34353df8c9}, !- Handle
  UFBaseWallIns,                          !- Name
  Rough,                                  !- Roughness
  0.051816,                               !- Thickness {m}
  0.029427,                               !- Conductivity {W/m-K}
  32.04,                                  !- Density {kg/m3}
  1214.23;                                !- Specific Heat {J/kg-K}

