
OS:Version,
  {e4c15d82-d695-428a-85e6-0715786fb7b2}, !- Handle
  1.3.1;                                  !- Version Identifier

OS:Material:NoMass,
  {6ca0872b-95bf-487f-8878-d287180b5cc3}, !- Handle
  UFBaseWall_FicR_Ceiling_R_30_Fiberglass_Batt, !- Name
  Rough,                                  !- Roughness
  0.511257279809397;                      !- Thermal Resistance {m2-K/W}

