
OS:Version,
  {16d4182f-80ec-434b-9b7d-71589afeb19f}, !- Handle
  1.3.1;                                  !- Version Identifier

OS:Material:NoMass,
  {1569c7c0-fa51-4064-a770-add604f94b71}, !- Handle
  UFBaseFloor_FicR_Whole_Wall_R_15_XPS,   !- Name
  Rough,                                  !- Roughness
  9.58784349816594;                       !- Thermal Resistance {m2-K/W}

