
OS:Version,
  {e6a7235a-7fb4-45bd-a04c-df0f0d4c0931}, !- Handle
  1.3.1;                                  !- Version Identifier

OS:Material,
  {f29fc3f3-28b2-431d-b01f-c1f432051e78}, !- Handle
  UFBaseWallIns,                          !- Name
  Rough,                                  !- Roughness
  0.025908,                               !- Thickness {m}
  0.029427,                               !- Conductivity {W/m-K}
  32.04,                                  !- Density {kg/m3}
  1214.23;                                !- Specific Heat {J/kg-K}

