
OS:Version,
  {feb051ee-d8af-4bba-98af-b75396f430fb}, !- Handle
  1.3.1;                                  !- Version Identifier

OS:Material:NoMass,
  {31b89093-bd35-4b24-bc48-1b5e71580ed5}, !- Handle
  UFBaseFloor_FicR_Ceiling_R_30_Fiberglass_Batt, !- Name
  Rough,                                  !- Roughness
  176.1;                                  !- Thermal Resistance {m2-K/W}

