
OS:Version,
  {bf9778b1-5d46-4af5-9380-13107dfd27a7}, !- Handle
  1.3.1;                                  !- Version Identifier

OS:Material:NoMass,
  {bfa55e23-bbae-42db-a8ae-2e329d9b9983}, !- Handle
  UFBaseFloor_FicR_Ceiling_R_19_Fiberglass_Batt, !- Name
  Rough,                                  !- Roughness
  176.1;                                  !- Thermal Resistance {m2-K/W}

