
OS:Version,
  {06eda277-09f1-45e6-8b9d-1c02b216d0e3}, !- Handle
  1.3.1;                                  !- Version Identifier

OS:Material:NoMass,
  {4532d828-5916-4b46-9b75-83a726f01ebe}, !- Handle
  UFBaseFloor_FicR_Uninsulated,           !- Name
  Rough,                                  !- Roughness
  176.1;                                  !- Thermal Resistance {m2-K/W}

