
OS:Version,
  {2092508e-ed19-4dba-941f-c819b0f89768}, !- Handle
  1.3.1;                                  !- Version Identifier

OS:Material:NoMass,
  {7099983c-0275-47c2-b847-6d7fb7959ced}, !- Handle
  UFBaseFloor_FicR_Ceiling_R_38_Fiberglass_Batt, !- Name
  Rough,                                  !- Roughness
  176.1;                                  !- Thermal Resistance {m2-K/W}

