
OS:Version,
  {e57b304b-c19b-44f2-9bb8-d52f947b88c4}, !- Handle
  1.3.1;                                  !- Version Identifier

OS:Material:NoMass,
  {97792b91-b7f2-463e-8ebc-16dcdc022544}, !- Handle
  UFBaseFloor_FicR_Whole_Wall_R_18_Polyiso, !- Name
  Rough,                                  !- Roughness
  8.33864894640409;                       !- Thermal Resistance {m2-K/W}

