
OS:Version,
  {79e5bcfe-0460-40ac-8067-e743abc7aaef}, !- Handle
  1.3.1;                                  !- Version Identifier

OS:Material:NoMass,
  {b91a8db4-1587-4c19-bb23-138d6a3e6f65}, !- Handle
  UFBaseFloor_FicR_Whole_Wall_R_13_Fiberglass_Batt_Gr_2_2x4_16_in_o.c._R_5_XPS, !- Name
  Rough,                                  !- Roughness
  176.1;                                  !- Thermal Resistance {m2-K/W}

