
OS:Version,
  {f80c503c-3920-407a-a90a-60ddde372a5d}, !- Handle
  1.3.1;                                  !- Version Identifier

OS:Material:NoMass,
  {6f0cd077-d3e2-4325-856c-aac44d108d56}, !- Handle
  UFBaseWall_FicR_Whole_Wall_R_13_Fiberglass_Batt_Gr_2_2x4_16_in_o.c., !- Name
  Rough,                                  !- Roughness
  1.45489944517283;                       !- Thermal Resistance {m2-K/W}

