
OS:Version,
  {12026871-512c-46ca-bef6-d7dbf9a339ed}, !- Handle
  1.3.1;                                  !- Version Identifier

OS:Material:NoMass,
  {5708ab1e-9dbc-4eff-b09c-106daf093fba}, !- Handle
  UFBaseFloor_FicR_Whole_Wall_R_12_Polyiso, !- Name
  Rough,                                  !- Roughness
  12.7307857300317;                       !- Thermal Resistance {m2-K/W}

