
OS:Version,
  {2f8fa777-3a3b-4b50-85da-eb53d2c93a68}, !- Handle
  1.3.1;                                  !- Version Identifier

OS:Material:NoMass,
  {72f550f8-a1fb-4691-ae01-445b936d29d5}, !- Handle
  UFBaseWall_FicR_Whole_Wall_R_21_Fiberglass_Batt_Gr_2_2x6_24_in_o.c., !- Name
  Rough,                                  !- Roughness
  1.80777403664588;                       !- Thermal Resistance {m2-K/W}

