
OS:Version,
  {30ceaf2c-33e4-4d3a-b252-3c4c233c23a6}, !- Handle
  1.3.1;                                  !- Version Identifier

OS:Material:NoMass,
  {03838025-1e68-45bf-9c77-d53ee253575b}, !- Handle
  UFBaseFloor_FicR_Whole_Wall_R_5_XPS,    !- Name
  Rough,                                  !- Roughness
  176.1;                                  !- Thermal Resistance {m2-K/W}

