
OS:Version,
  {bf085169-a64d-4156-8b12-6a84f217abe8}, !- Handle
  1.3.1;                                  !- Version Identifier

OS:Material:NoMass,
  {0856e24e-45c1-439b-81b9-5077f9020f01}, !- Handle
  UFBaseFloor_FicR_Whole_Wall_R_13_Fiberglass_Batt_Gr_2_2x4_16_in_o.c._R_10_XPS, !- Name
  Rough,                                  !- Roughness
  176.1;                                  !- Thermal Resistance {m2-K/W}

