
OS:Version,
  {a127ab05-6b67-46bd-a2e6-4f9a0cd20f38}, !- Handle
  1.3.1;                                  !- Version Identifier

OS:Material:NoMass,
  {e0b0fcef-3b73-4139-bdad-7a07b6569628}, !- Handle
  UFBaseFloor_FicR_Half_Wall_R_6_Polyiso, !- Name
  Rough,                                  !- Roughness
  176.1;                                  !- Thermal Resistance {m2-K/W}

