
OS:Version,
  {e3448ac2-e0f6-497b-9054-3797f3785700}, !- Handle
  1.3.1;                                  !- Version Identifier

OS:Material:NoMass,
  {935e4264-723d-4733-97d1-20f836e04a40}, !- Handle
  UFBaseFloor_FicR_Whole_Wall_R_11_Fiberglass_Batt_Gr_2_2x4_16_in_o.c., !- Name
  Rough,                                  !- Roughness
  176.1;                                  !- Thermal Resistance {m2-K/W}

