
OS:Version,
  {3eba64d7-302b-47e9-a6ce-2ea24b494428}, !- Handle
  1.3.1;                                  !- Version Identifier

OS:Material,
  {9e5c5d1a-00c0-4772-a04a-d3ba53bff133}, !- Handle
  UFBaseWallIns,                          !- Name
  Rough,                                  !- Roughness
  0.0932688,                              !- Thickness {m}
  0.029427,                               !- Conductivity {W/m-K}
  32.04,                                  !- Density {kg/m3}
  1214.23;                                !- Specific Heat {J/kg-K}

