
OS:Version,
  {67d10374-c55a-4e13-8cca-3440ec8c580a}, !- Handle
  1.3.1;                                  !- Version Identifier

OS:Material,
  {d84018f7-868c-4a85-b493-d4f4926f58d0}, !- Handle
  UFBsmtCeilingIns,                       !- Name
  Rough,                                  !- Roughness
  0.23495,                                !- Thickness {m}
  2.59817370406863,                       !- Conductivity {W/m-K}
  106.36479,                              !- Density {kg/m3}
  1151.68513065742;                       !- Specific Heat {J/kg-K}

