
OS:Version,
  {48eeb7af-5e4d-4f8c-9f1a-d87f4b1f8de4}, !- Handle
  1.3.1;                                  !- Version Identifier

OS:Material,
  {ebcc1df0-aef0-4a2c-a1e5-b685480554d3}, !- Handle
  UFBsmtJoistandCavity,                   !- Name
  Rough,                                  !- Roughness
  0.23495,                                !- Thickness {m}
  0.102814149707233,                      !- Conductivity {W/m-K}
  82.081674,                              !- Density {kg/m3}
  1128.33754025411;                       !- Specific Heat {J/kg-K}

