
OS:Version,
  {884412b5-aa03-41b9-baa2-2327990556c7}, !- Handle
  1.3.1;                                  !- Version Identifier

OS:Material,
  {a597e4de-5c41-4351-aa5f-2f07f7087206}, !- Handle
  UFBsmtJoistandCavity,                   !- Name
  Rough,                                  !- Roughness
  0.23495,                                !- Thickness {m}
  0.110682016358495,                      !- Conductivity {W/m-K}
  82.081674,                              !- Density {kg/m3}
  1128.33754025411;                       !- Specific Heat {J/kg-K}

