
OS:Version,
  {43b66d54-b077-4dc7-b7cf-6d7dca4b4299}, !- Handle
  1.3.1;                                  !- Version Identifier

OS:Material,
  {8ee359d4-8a4d-4079-9f2a-460b56bfadf2}, !- Handle
  UFBsmtCeilingIns,                       !- Name
  Rough,                                  !- Roughness
  0.23495,                                !- Thickness {m}
  0.052129384503153,                      !- Conductivity {W/m-K}
  106.36479,                              !- Density {kg/m3}
  1151.68513065742;                       !- Specific Heat {J/kg-K}

