
OS:Version,
  {1290adbf-d7c3-46eb-ab5b-d0d7825ba8d5}, !- Handle
  1.3.1;                                  !- Version Identifier

OS:Material,
  {9d7d3f2b-7332-4fa8-8c94-19b039e0a49f}, !- Handle
  UFBsmtCeilingIns,                       !- Name
  Rough,                                  !- Roughness
  0.23495,                                !- Thickness {m}
  2.59817370406863,                       !- Conductivity {W/m-K}
  106.36479,                              !- Density {kg/m3}
  1151.68513065742;                       !- Specific Heat {J/kg-K}

