
OS:Version,
  {45fb2dab-db31-4735-b8c8-a37f7b65a057}, !- Handle
  1.3.1;                                  !- Version Identifier

OS:Material,
  {99bfc3c7-7a73-4473-8451-ee172488078b}, !- Handle
  UFBsmtJoistandCavity,                   !- Name
  Rough,                                  !- Roughness
  0.23495,                                !- Thickness {m}
  0.182840791592406,                      !- Conductivity {W/m-K}
  82.081674,                              !- Density {kg/m3}
  1128.33754025411;                       !- Specific Heat {J/kg-K}

