
OS:Version,
  {2dfab14e-d933-4a02-8104-3cb24ac6d55b}, !- Handle
  1.3.1;                                  !- Version Identifier

OS:Material,
  {4d4aed9f-513e-4cb2-afbf-377d6c529ef0}, !- Handle
  UFBsmtCeilingIns,                       !- Name
  Rough,                                  !- Roughness
  0.23495,                                !- Thickness {m}
  2.59817370406863,                       !- Conductivity {W/m-K}
  106.36479,                              !- Density {kg/m3}
  1151.68513065742;                       !- Specific Heat {J/kg-K}

