
OS:Version,
  {e46c8c68-8137-48da-893c-398b62400ea5}, !- Handle
  1.3.1;                                  !- Version Identifier

OS:Material,
  {2b8b47de-9e74-4bb6-aa35-f09297a3d6e3}, !- Handle
  UFBsmtCeilingIns,                       !- Name
  Rough,                                  !- Roughness
  0.23495,                                !- Thickness {m}
  2.59817370406863,                       !- Conductivity {W/m-K}
  106.36479,                              !- Density {kg/m3}
  1151.68513065742;                       !- Specific Heat {J/kg-K}

