
OS:Version,
  {d208a8af-e969-42e8-b5d5-7ef44103df4b}, !- Handle
  1.3.1;                                  !- Version Identifier

OS:Material,
  {4864142d-8e19-4c49-9af7-e82d98b7b663}, !- Handle
  UFBsmtCeilingIns,                       !- Name
  Rough,                                  !- Roughness
  0.23495,                                !- Thickness {m}
  2.59817370406863,                       !- Conductivity {W/m-K}
  106.36479,                              !- Density {kg/m3}
  1151.68513065742;                       !- Specific Heat {J/kg-K}

