
OS:Version,
  {1ef6a209-dea4-4731-aa5e-9e62da52bcb2}, !- Handle
  1.3.1;                                  !- Version Identifier

OS:Material,
  {0380341e-93b8-4482-95da-5f7b4642a8eb}, !- Handle
  UFBsmtJoistandCavity,                   !- Name
  Rough,                                  !- Roughness
  0.23495,                                !- Thickness {m}
  0.119955868932051,                      !- Conductivity {W/m-K}
  82.081674,                              !- Density {kg/m3}
  1128.33754025411;                       !- Specific Heat {J/kg-K}

