
OS:Version,
  {f82b427f-b7fe-4a20-910b-afdbcbf45220}, !- Handle
  1.3.1;                                  !- Version Identifier

OS:Material,
  {c770d4d9-0286-4d45-937b-ab2924a240f7}, !- Handle
  UFBsmtCeilingIns,                       !- Name
  Rough,                                  !- Roughness
  0.23495,                                !- Thickness {m}
  2.59817370406863,                       !- Conductivity {W/m-K}
  106.36479,                              !- Density {kg/m3}
  1151.68513065742;                       !- Specific Heat {J/kg-K}

