
OS:Version,
  {acdd2658-8023-4451-9513-4777e9904ee4}, !- Handle
  1.3.1;                                  !- Version Identifier

OS:Material,
  {39097573-04f7-4443-b23b-f846d24555ef}, !- Handle
  UFBsmtCeilingIns,                       !- Name
  Rough,                                  !- Roughness
  0.23495,                                !- Thickness {m}
  0.0435332421077723,                     !- Conductivity {W/m-K}
  106.36479,                              !- Density {kg/m3}
  1151.68513065742;                       !- Specific Heat {J/kg-K}

