
OS:Version,
  {aa3ee70e-a01f-4c44-918b-5120de56a2c7}, !- Handle
  1.3.1;                                  !- Version Identifier

OS:Material,
  {527fa06f-f6e4-46de-b8b7-060a8efc39d4}, !- Handle
  UFBsmtCeilingIns,                       !- Name
  Rough,                                  !- Roughness
  0.23495,                                !- Thickness {m}
  2.59817370406863,                       !- Conductivity {W/m-K}
  106.36479,                              !- Density {kg/m3}
  1151.68513065742;                       !- Specific Heat {J/kg-K}

