
OS:Version,
  {739eee79-a600-43ab-966f-589904be7bed}, !- Handle
  1.3.1;                                  !- Version Identifier

OS:Material,
  {a328b52e-e75f-497b-a0be-1adeba22ec8c}, !- Handle
  UFBsmtCeilingIns,                       !- Name
  Rough,                                  !- Roughness
  0.23495,                                !- Thickness {m}
  2.59817370406863,                       !- Conductivity {W/m-K}
  106.36479,                              !- Density {kg/m3}
  1151.68513065742;                       !- Specific Heat {J/kg-K}

