
OS:Version,
  {ce19d9be-cb68-4ae0-80cf-dcff4369d7b0}, !- Handle
  1.3.1;                                  !- Version Identifier

OS:Material,
  {29b97da3-c969-4c8d-a0ac-e0217f14d1a0}, !- Handle
  UFBsmtCeilingIns,                       !- Name
  Rough,                                  !- Roughness
  0.23495,                                !- Thickness {m}
  2.59817370406863,                       !- Conductivity {W/m-K}
  106.36479,                              !- Density {kg/m3}
  1151.68513065742;                       !- Specific Heat {J/kg-K}

