
OS:Version,
  {c7113619-6a60-40e3-92bc-344151027c97}, !- Handle
  1.3.1;                                  !- Version Identifier

OS:Material,
  {555b64d1-f92e-46ba-a383-5edfe3f5a09d}, !- Handle
  UFBsmtCeilingIns,                       !- Name
  Rough,                                  !- Roughness
  0.23495,                                !- Thickness {m}
  0.0754732191870427,                     !- Conductivity {W/m-K}
  106.36479,                              !- Density {kg/m3}
  1151.68513065742;                       !- Specific Heat {J/kg-K}

