
OS:Version,
  {19f8b73a-5b1e-4fb3-a73f-ad3c69655b6d}, !- Handle
  1.3.1;                                  !- Version Identifier

OS:Material,
  {2c91797f-89d8-4067-bf53-e50d961dca6c}, !- Handle
  UFBsmtJoistandCavity,                   !- Name
  Rough,                                  !- Roughness
  0.23495,                                !- Thickness {m}
  0.584197590381047,                      !- Conductivity {W/m-K}
  41.0839868271477,                       !- Density {kg/m3}
  1208.63462554837;                       !- Specific Heat {J/kg-K}

