
OS:Version,
  {d410e16b-bf0f-4d35-87f7-dfbee7847616}, !- Handle
  1.3.1;                                  !- Version Identifier

OS:Material,
  {e2540857-74c0-4a22-97f7-eabb3f8cdb57}, !- Handle
  UFBsmtJoistandCavity,                   !- Name
  Rough,                                  !- Roughness
  0.23495,                                !- Thickness {m}
  0.211256903615193,                      !- Conductivity {W/m-K}
  82.081674,                              !- Density {kg/m3}
  1128.33754025411;                       !- Specific Heat {J/kg-K}

