
OS:Version,
  {8f63a9f5-b1cb-4482-8edd-27c1a2c3f074}, !- Handle
  1.3.1;                                  !- Version Identifier

OS:Material,
  {5044e230-5edf-46fe-9c8c-ddb757460bca}, !- Handle
  UFBsmtCeilingIns,                       !- Name
  Rough,                                  !- Roughness
  0.23495,                                !- Thickness {m}
  2.59817370406863,                       !- Conductivity {W/m-K}
  106.36479,                              !- Density {kg/m3}
  1151.68513065742;                       !- Specific Heat {J/kg-K}

