
OS:Version,
  {e087e30e-673e-4da1-aa5c-1bb633f9660c}, !- Handle
  1.3.1;                                  !- Version Identifier

OS:Material,
  {7bdf9c26-8d86-4ba5-b2c8-d1666c80406b}, !- Handle
  UFBsmtJoistandCavity,                   !- Name
  Rough,                                  !- Roughness
  0.23495,                                !- Thickness {m}
  0.0695596794908662,                     !- Conductivity {W/m-K}
  82.081674,                              !- Density {kg/m3}
  1128.33754025411;                       !- Specific Heat {J/kg-K}

