
OS:Version,
  {74a4fd2e-d07b-438a-8f00-4dc3dc9e52c5}, !- Handle
  1.3.1;                                  !- Version Identifier

OS:Material,
  {5b1bff5b-3e86-49ce-8f49-a8fa78966bce}, !- Handle
  UFBsmtJoistandCavity,                   !- Name
  Rough,                                  !- Roughness
  0.23495,                                !- Thickness {m}
  0.0960550613478366,                     !- Conductivity {W/m-K}
  82.081674,                              !- Density {kg/m3}
  1128.33754025411;                       !- Specific Heat {J/kg-K}

