
OS:Version,
  {11672fc3-bd73-4f1b-a001-bb9eaa8359cf}, !- Handle
  1.3.1;                                  !- Version Identifier

OS:Material,
  {d3c3aef0-0437-45a7-b723-31ff231e648d}, !- Handle
  UFBsmtCeilingIns,                       !- Name
  Rough,                                  !- Roughness
  0.23495,                                !- Thickness {m}
  2.59817370406863,                       !- Conductivity {W/m-K}
  106.36479,                              !- Density {kg/m3}
  1151.68513065742;                       !- Specific Heat {J/kg-K}

