
OS:Version,
  {2478a0a0-0f2b-45f6-bba0-7f9091a8b91e}, !- Handle
  1.3.1;                                  !- Version Identifier

OS:Material,
  {a070cf8a-35b0-4e60-85ff-a785ff3e221f}, !- Handle
  UFBsmtCeilingIns,                       !- Name
  Rough,                                  !- Roughness
  0.23495,                                !- Thickness {m}
  2.59817370406863,                       !- Conductivity {W/m-K}
  106.36479,                              !- Density {kg/m3}
  1151.68513065742;                       !- Specific Heat {J/kg-K}

