
OS:Version,
  {58d33816-e625-46f2-820f-a83c527fdc0c}, !- Handle
  1.3.1;                                  !- Version Identifier

OS:Material,
  {d386a282-dc4d-44db-860c-d59f67f85bb5}, !- Handle
  UFBsmtCeilingIns,                       !- Name
  Rough,                                  !- Roughness
  0.23495,                                !- Thickness {m}
  2.59817370406863,                       !- Conductivity {W/m-K}
  106.36479,                              !- Density {kg/m3}
  1151.68513065742;                       !- Specific Heat {J/kg-K}

