
OS:Version,
  {bf326bea-92bb-44d4-9205-63bbd4d2582d}, !- Handle
  1.3.1;                                  !- Version Identifier

OS:Material,
  {6a88416e-45f4-4677-bb94-d0e16d3e52a2}, !- Handle
  UFBsmtJoistandCavity,                   !- Name
  Rough,                                  !- Roughness
  0.23495,                                !- Thickness {m}
  0.0850414942554148,                     !- Conductivity {W/m-K}
  82.081674,                              !- Density {kg/m3}
  1128.33754025411;                       !- Specific Heat {J/kg-K}

