
OS:Version,
  {0a3180ec-7d48-4c24-8f7d-fa1d1ba74543}, !- Handle
  1.3.1;                                  !- Version Identifier

OS:Material,
  {8b88f6c8-890a-48e2-b26a-23430f8c1ed0}, !- Handle
  Wall_Sheathing_R_12_Polyiso_2.0_in,     !- Name
  Rough,                                  !- Roughness
  0.0508,                                 !- Thickness {m}
  0.0240416666666667,                     !- Conductivity {W/m-K}
  32.04,                                  !- Density {kg/m3}
  1214.23;                                !- Specific Heat {J/kg-K}

