
OS:Version,
  {c0cca969-ab8f-437b-a1d4-15886b19fd2f}, !- Handle
  1.3.1;                                  !- Version Identifier

OS:Material,
  {4f61865a-834d-4a2f-9bd0-3e770b33cfb1}, !- Handle
  WallIns,                                !- Name
  Rough,                                  !- Roughness
  0.117475,                               !- Thickness {m}
  0.0429141966545455,                     !- Conductivity {W/m-K}
  107.0136,                               !- Density {kg/m3}
  1214.23;                                !- Specific Heat {J/kg-K}

