
OS:Version,
  {ef885a35-add4-4343-8370-8d0d977a2127}, !- Handle
  1.3.1;                                  !- Version Identifier

OS:Material,
  {a0cdd7a2-ae6b-4510-ad11-878537fa3f72}, !- Handle
  WallIns,                                !- Name
  Rough,                                  !- Roughness
  0.066675,                               !- Thickness {m}
  0.0432304226285714,                     !- Conductivity {W/m-K}
  107.0136,                               !- Density {kg/m3}
  1214.23;                                !- Specific Heat {J/kg-K}

