
OS:Version,
  {f4ac7429-a68a-48fd-a1e8-eaa69edfe3f8}, !- Handle
  1.3.1;                                  !- Version Identifier

OS:Material,
  {dd3240ed-8435-488f-98ae-8bc2f9a12593}, !- Handle
  WallIns,                                !- Name
  Rough,                                  !- Roughness
  0.066675,                               !- Thickness {m}
  0.0432304226285714,                     !- Conductivity {W/m-K}
  107.0136,                               !- Density {kg/m3}
  1214.23;                                !- Specific Heat {J/kg-K}

