
OS:Version,
  {339c1b2b-e472-4170-a373-228ce51a492a}, !- Handle
  1.3.1;                                  !- Version Identifier

OS:Material,
  {7b189fca-8874-4bc8-ace4-bff557e64e7d}, !- Handle
  Wall_Sheathing_R_6_Polyiso_1.0_in,      !- Name
  Rough,                                  !- Roughness
  0.0254,                                 !- Thickness {m}
  0.0240416666666667,                     !- Conductivity {W/m-K}
  32.04,                                  !- Density {kg/m3}
  1214.23;                                !- Specific Heat {J/kg-K}

