
OS:Version,
  {50e5a699-e327-4352-bc13-456dc5e659a0}, !- Handle
  1.3.1;                                  !- Version Identifier

OS:Material,
  {2d081df4-9456-4434-95f8-cb1de541a00a}, !- Handle
  WallIns,                                !- Name
  Rough,                                  !- Roughness
  0.161925,                               !- Thickness {m}
  0.0419549778666667,                     !- Conductivity {W/m-K}
  107.0136,                               !- Density {kg/m3}
  1214.23;                                !- Specific Heat {J/kg-K}

