
OS:Version,
  {b1958aa0-5990-4598-83e8-665ea330ce5f}, !- Handle
  1.3.1;                                  !- Version Identifier

OS:Material,
  {64f23dae-9e88-4710-8a82-115d14ee7e9d}, !- Handle
  WallIns,                                !- Name
  Rough,                                  !- Roughness
  0.212725,                               !- Thickness {m}
  0.0420404143578947,                     !- Conductivity {W/m-K}
  107.0136,                               !- Density {kg/m3}
  1214.23;                                !- Specific Heat {J/kg-K}

