
OS:Version,
  {0bc3e421-5cc3-4136-a72d-9c7dc9a11900}, !- Handle
  1.3.1;                                  !- Version Identifier

OS:Material,
  {cab13328-d0b3-4ca9-88d7-899ed673ce13}, !- Handle
  WallIns,                                !- Name
  Rough,                                  !- Roughness
  0.117475,                               !- Thickness {m}
  0.0429141966545455,                     !- Conductivity {W/m-K}
  107.0136,                               !- Density {kg/m3}
  1214.23;                                !- Specific Heat {J/kg-K}

