
OS:Version,
  {6b9dde73-9a2e-4838-a96b-7dc4a150c928}, !- Handle
  1.3.1;                                  !- Version Identifier

OS:Material,
  {9535510f-2ddd-418f-bcf9-bd59552847c6}, !- Handle
  WallIns,                                !- Name
  Rough,                                  !- Roughness
  0.161925,                               !- Thickness {m}
  0.0419549778666667,                     !- Conductivity {W/m-K}
  107.0136,                               !- Density {kg/m3}
  1214.23;                                !- Specific Heat {J/kg-K}

