
OS:Version,
  {4fd90dd2-d6c3-4ba5-b403-6eb07ba4a915}, !- Handle
  1.3.1;                                  !- Version Identifier

OS:Material,
  {caa119b9-b0aa-4d08-90bb-e589aa93506a}, !- Handle
  WoodFlooring,                           !- Name
  Rough,                                  !- Roughness
  0.01905,                                !- Thickness {m}
  0.1154577,                              !- Conductivity {W/m-K}
  512.64,                                 !- Density {kg/m3}
  1214.23;                                !- Specific Heat {J/kg-K}

