
OS:Version,
  {ddf90cc7-8a6f-404c-9b4d-3fab3a4c5f02}, !- Handle
  1.3.1;                                  !- Version Identifier

OS:Construction,
  {47e1cbe5-ee7a-4c9f-8a38-b0b50c2b2f5d}, !- Handle
  UnfinCSInsFinFloor,                     !- Name
  ,                                       !- Surface Rendering Name
  {c986133d-1943-426f-96b7-88a26e1f4736}, !- Layer 1
  {719a78b7-d04f-4907-b65a-31911d37649d}, !- Layer 2
  {c2b742b7-73ea-4e03-a4ed-23853f423bf5}, !- Layer 3
  {5017cbcb-d7bd-40d5-9c7e-3a2e9afcd5c3}; !- Layer 4

OS:Material,
  {719a78b7-d04f-4907-b65a-31911d37649d}, !- Handle
  Plywood_3_4in,                          !- Name
  Rough,                                  !- Roughness
  0.01905,                                !- Thickness {m}
  0.1154577,                              !- Conductivity {W/m-K}
  512.64,                                 !- Density {kg/m3}
  1214.23;                                !- Specific Heat {J/kg-K}

OS:Material,
  {c2b742b7-73ea-4e03-a4ed-23853f423bf5}, !- Handle
  Floor_Mass_Wood_Surface,                !- Name
  Rough,                                  !- Roughness
  0.015875,                               !- Thickness {m}
  0.1154577,                              !- Conductivity {W/m-K}
  544.68,                                 !- Density {kg/m3}
  1214.23,                                !- Specific Heat {J/kg-K}
  0.9,                                    !- Thermal Absorptance
  0.6;                                    !- Solar Absorptance

OS:Material,
  {5017cbcb-d7bd-40d5-9c7e-3a2e9afcd5c3}, !- Handle
  CarpetBareLayer,                        !- Name
  Rough,                                  !- Roughness
  0.0127,                                 !- Thickness {m}
  0.0433443509615385,                     !- Conductivity {W/m-K}
  54.4679999999999,                       !- Density {kg/m3}
  1339.84;                                !- Specific Heat {J/kg-K}

OS:Material,
  {c986133d-1943-426f-96b7-88a26e1f4736}, !- Handle
  CrawlCeilingIns,                        !- Name
  Rough,                                  !- Roughness
  0.23495,                                !- Thickness {m}
  0.052129384503153,                      !- Conductivity {W/m-K}
  106.36479,                              !- Density {kg/m3}
  1151.68513065742;                       !- Specific Heat {J/kg-K}

