
OS:Version,
  {e0de0f73-efd6-4fb5-8b74-ecbf96a12b75}, !- Handle
  1.3.1;                                  !- Version Identifier

OS:Construction,
  {114cec18-8f0c-4bed-830b-38b5b1412e3a}, !- Handle
  GrndInsUnfinCSWall,                     !- Name
  ,                                       !- Surface Rendering Name
  {5028960f-1966-4a97-bb35-23c25d3d3125}, !- Layer 1
  {d8049c9a-357a-4911-a823-c1d77c7a7e37}, !- Layer 2
  {579b35c8-db1d-48a5-9de7-446842b26f30}; !- Layer 3

OS:Material,
  {5028960f-1966-4a97-bb35-23c25d3d3125}, !- Handle
  Soil_12in,                              !- Name
  Rough,                                  !- Roughness
  0.3048,                                 !- Thickness {m}
  1.731,                                  !- Conductivity {W/m-K}
  1842.3,                                 !- Density {kg/m3}
  418.7;                                  !- Specific Heat {J/kg-K}

OS:Material,
  {d8049c9a-357a-4911-a823-c1d77c7a7e37}, !- Handle
  Concrete_8in,                           !- Name
  Rough,                                  !- Roughness
  0.2032,                                 !- Thickness {m}
  1.3114056,                              !- Conductivity {W/m-K}
  2242.79999999999,                       !- Density {kg/m3}
  837.4;                                  !- Specific Heat {J/kg-K}

OS:Material,
  {579b35c8-db1d-48a5-9de7-446842b26f30}, !- Handle
  CWallIns,                               !- Name
  Rough,                                  !- Roughness
  0.09652,                                !- Thickness {m}
  0.02885,                                !- Conductivity {W/m-K}
  32.04,                                  !- Density {kg/m3}
  1214.23;                                !- Specific Heat {J/kg-K}

