
OS:Version,
  {30671b9c-a3ac-43c5-9a3c-988275b5aedb}, !- Handle
  1.3.1;                                  !- Version Identifier

OS:Construction,
  {5b58ee38-bdbc-4349-adea-f4649ae67998}, !- Handle
  Single-Pane Clear Metal Frame,          !- Name
  ,                                       !- Surface Rendering Name
  {df0fdc20-42d8-4715-8862-85f699012ddb}; !- Layer 1

OS:WindowMaterial:SimpleGlazingSystem,
  {df0fdc20-42d8-4715-8862-85f699012ddb}, !- Handle
  Single-Pane Glass,                      !- Name
  6.59877319117468,                       !- U-Factor {W/m2-K}
  0.761047198571256;                      !- Solar Heat Gain Coefficient

OS:StandardsInformation:Construction,
  {f79515c9-2e93-4178-aa5d-b57791b2ca82}, !- Handle
  {5b58ee38-bdbc-4349-adea-f4649ae67998}, !- Construction Name
  ExteriorWindow;                         !- Intended Surface Type

OS:ComponentData,
  {2ecdbb29-f34e-410a-9145-1cc900b499d8}, !- Handle
  Component Data 1,                       !- Name
  {0a8834a0-b9e9-43bd-aa8d-b9273a6350b1}, !- UUID
  {3f2996a4-5a44-429d-8e27-d6f653866b92}, !- Version UUID
  1406055301,                             !- Creation Timestamp
  1406055301,                             !- Version Timestamp
  {5b58ee38-bdbc-4349-adea-f4649ae67998}, !- Name of Object 1
  {df0fdc20-42d8-4715-8862-85f699012ddb}, !- Name of Object 2
  {f79515c9-2e93-4178-aa5d-b57791b2ca82}; !- Name of Object 3

