
OS:Version,
  {76ce64be-add4-4baf-bf4f-cc95b1763846}, !- Handle
  1.3.1;                                  !- Version Identifier

OS:WindowMaterial:SimpleGlazingSystem,
  {911e0125-1834-4ee5-81cc-ad25e39bb26f}, !- Handle
  Single-Pane Glass,                      !- Name
  6.59877319117468,                       !- U-Factor {W/m2-K}
  0.761047198571256;                      !- Solar Heat Gain Coefficient

OS:Construction,
  {e046fdd0-c3a9-4019-89f3-8a6140a86f36}, !- Handle
  Single-Pane Clear Metal Frame,          !- Name
  ,                                       !- Surface Rendering Name
  {911e0125-1834-4ee5-81cc-ad25e39bb26f}; !- Layer 1

OS:StandardsInformation:Construction,
  {40e959da-f599-445e-930b-57b8a3197788}, !- Handle
  {e046fdd0-c3a9-4019-89f3-8a6140a86f36}, !- Construction Name
  ExteriorWindow;                         !- Intended Surface Type

