
OS:Version,
  {5d401c53-1d4c-46e4-baa8-9454a7446c45}, !- Handle
  1.3.1;                                  !- Version Identifier

OS:Construction,
  {441ed7c0-f67c-4963-90ba-1c8f1eecfa37}, !- Handle
  UnfinCSInsFinFloor,                     !- Name
  ,                                       !- Surface Rendering Name
  {53f1c1a0-2767-4b83-8c2a-5f4958a1c6ca}, !- Layer 1
  {59e388fc-2b84-4806-af05-0d152d005b63}, !- Layer 2
  {28b2192b-0b47-4721-854c-a6b8474368f3}, !- Layer 3
  {1516aa22-7b01-4ca5-9032-f7e5d5e738d5}; !- Layer 4

OS:Material,
  {59e388fc-2b84-4806-af05-0d152d005b63}, !- Handle
  Plywood_3_4in,                          !- Name
  Rough,                                  !- Roughness
  0.01905,                                !- Thickness {m}
  0.1154577,                              !- Conductivity {W/m-K}
  512.64,                                 !- Density {kg/m3}
  1214.23;                                !- Specific Heat {J/kg-K}

OS:Material,
  {28b2192b-0b47-4721-854c-a6b8474368f3}, !- Handle
  Floor_Mass_Wood_Surface,                !- Name
  Rough,                                  !- Roughness
  0.015875,                               !- Thickness {m}
  0.1154577,                              !- Conductivity {W/m-K}
  544.68,                                 !- Density {kg/m3}
  1214.23,                                !- Specific Heat {J/kg-K}
  0.9,                                    !- Thermal Absorptance
  0.6;                                    !- Solar Absorptance

OS:Material,
  {1516aa22-7b01-4ca5-9032-f7e5d5e738d5}, !- Handle
  CarpetBareLayer,                        !- Name
  Rough,                                  !- Roughness
  0.0127,                                 !- Thickness {m}
  0.0433443509615385,                     !- Conductivity {W/m-K}
  54.4679999999999,                       !- Density {kg/m3}
  1339.84;                                !- Specific Heat {J/kg-K}

OS:Material,
  {53f1c1a0-2767-4b83-8c2a-5f4958a1c6ca}, !- Handle
  CrawlCeilingIns,                        !- Name
  Rough,                                  !- Roughness
  0.23495,                                !- Thickness {m}
  0.052129384503153,                      !- Conductivity {W/m-K}
  106.36479,                              !- Density {kg/m3}
  1151.68513065742;                       !- Specific Heat {J/kg-K}

