
Version,
  8.0;                                    !- Version Identifier

LifeCycleCost:Parameters,
  {fa1ae0aa-4681-4aa5-ae50-d6afd74d660f}, !- Name
  EndOfYear,                              !- Discounting Convention
  ConstantDollar,                         !- Inflation Approach
  0.03,                                   !- Real Discount Rate
  ,                                       !- Nominal Discount Rate
  ,                                       !- Inflation
  ,                                       !- Base Date Month
  2011,                                   !- Base Date Year
  ,                                       !- Service Date Month
  2011,                                   !- Service Date Year
  25,                                     !- Length of Study Period in Years
  ,                                       !- Tax rate
  None;                                   !- Depreciation Method

LifeCycleCost:UsePriceEscalation,
  U.S. Avg  Commercial-Electricity,       !- Name
  Electricity,                            !- Resource
  2011,                                   !- Escalation Start Year
  January,                                !- Escalation Start Month
  0.9838,                                 !- Year Escalation 1
  0.9730,                                 !- Year Escalation 2
  0.9632,                                 !- Year Escalation 3
  0.9611,                                 !- Year Escalation 4
  0.9571,                                 !- Year Escalation 5
  0.9553,                                 !- Year Escalation 6
  0.9539,                                 !- Year Escalation 7
  0.9521,                                 !- Year Escalation 8
  0.9546,                                 !- Year Escalation 9
  0.9550,                                 !- Year Escalation 10
  0.9553,                                 !- Year Escalation 11
  0.9564,                                 !- Year Escalation 12
  0.9575,                                 !- Year Escalation 13
  0.9596,                                 !- Year Escalation 14
  0.9618,                                 !- Year Escalation 15
  0.9614,                                 !- Year Escalation 16
  0.9618,                                 !- Year Escalation 17
  0.9618,                                 !- Year Escalation 18
  0.9593,                                 !- Year Escalation 19
  0.9589,                                 !- Year Escalation 20
  0.9607,                                 !- Year Escalation 21
  0.9625,                                 !- Year Escalation 22
  0.9650,                                 !- Year Escalation 23
  0.9708,                                 !- Year Escalation 24
  0.9751,                                 !- Year Escalation 25
  0.9762,                                 !- Year Escalation 26
  0.9766,                                 !- Year Escalation 27
  0.9766,                                 !- Year Escalation 28
  0.9769,                                 !- Year Escalation 29
  0.9773;                                 !- Year Escalation 30

LifeCycleCost:UsePriceEscalation,
  U.S. Avg  Commercial-Distillate Oil,    !- Name
  FuelOil#1,                              !- Resource
  2011,                                   !- Escalation Start Year
  January,                                !- Escalation Start Month
  0.9714,                                 !- Year Escalation 1
  0.9730,                                 !- Year Escalation 2
  0.9942,                                 !- Year Escalation 3
  1.0164,                                 !- Year Escalation 4
  1.0541,                                 !- Year Escalation 5
  1.0928,                                 !- Year Escalation 6
  1.1267,                                 !- Year Escalation 7
  1.1580,                                 !- Year Escalation 8
  1.1792,                                 !- Year Escalation 9
  1.1967,                                 !- Year Escalation 10
  1.2200,                                 !- Year Escalation 11
  1.2333,                                 !- Year Escalation 12
  1.2566,                                 !- Year Escalation 13
  1.2709,                                 !- Year Escalation 14
  1.2826,                                 !- Year Escalation 15
  1.2985,                                 !- Year Escalation 16
  1.3102,                                 !- Year Escalation 17
  1.3250,                                 !- Year Escalation 18
  1.3261,                                 !- Year Escalation 19
  1.3282,                                 !- Year Escalation 20
  1.3324,                                 !- Year Escalation 21
  1.3356,                                 !- Year Escalation 22
  1.3431,                                 !- Year Escalation 23
  1.3510,                                 !- Year Escalation 24
  1.3568,                                 !- Year Escalation 25
  1.3606,                                 !- Year Escalation 26
  1.3637,                                 !- Year Escalation 27
  1.3674,                                 !- Year Escalation 28
  1.3706,                                 !- Year Escalation 29
  1.3743;                                 !- Year Escalation 30

LifeCycleCost:UsePriceEscalation,
  U.S. Avg  Commercial-Residual Oil,      !- Name
  FuelOil#2,                              !- Resource
  2011,                                   !- Escalation Start Year
  January,                                !- Escalation Start Month
  0.8469,                                 !- Year Escalation 1
  0.8257,                                 !- Year Escalation 2
  0.8681,                                 !- Year Escalation 3
  0.8988,                                 !- Year Escalation 4
  0.9289,                                 !- Year Escalation 5
  0.9604,                                 !- Year Escalation 6
  0.9897,                                 !- Year Escalation 7
  1.0075,                                 !- Year Escalation 8
  1.0314,                                 !- Year Escalation 9
  1.0554,                                 !- Year Escalation 10
  1.0861,                                 !- Year Escalation 11
  1.1278,                                 !- Year Escalation 12
  1.1497,                                 !- Year Escalation 13
  1.1620,                                 !- Year Escalation 14
  1.1743,                                 !- Year Escalation 15
  1.1852,                                 !- Year Escalation 16
  1.1948,                                 !- Year Escalation 17
  1.2037,                                 !- Year Escalation 18
  1.2071,                                 !- Year Escalation 19
  1.2119,                                 !- Year Escalation 20
  1.2139,                                 !- Year Escalation 21
  1.2194,                                 !- Year Escalation 22
  1.2276,                                 !- Year Escalation 23
  1.2365,                                 !- Year Escalation 24
  1.2420,                                 !- Year Escalation 25
  1.2461,                                 !- Year Escalation 26
  1.2509,                                 !- Year Escalation 27
  1.2550,                                 !- Year Escalation 28
  1.2591,                                 !- Year Escalation 29
  1.2638;                                 !- Year Escalation 30

LifeCycleCost:UsePriceEscalation,
  U.S. Avg  Commercial-Natural gas,       !- Name
  NaturalGas,                             !- Resource
  2011,                                   !- Escalation Start Year
  January,                                !- Escalation Start Month
  0.9823,                                 !- Year Escalation 1
  0.9557,                                 !- Year Escalation 2
  0.9279,                                 !- Year Escalation 3
  0.9257,                                 !- Year Escalation 4
  0.9346,                                 !- Year Escalation 5
  0.9412,                                 !- Year Escalation 6
  0.9512,                                 !- Year Escalation 7
  0.9645,                                 !- Year Escalation 8
  0.9856,                                 !- Year Escalation 9
  1.0067,                                 !- Year Escalation 10
  1.0222,                                 !- Year Escalation 11
  1.0410,                                 !- Year Escalation 12
  1.0610,                                 !- Year Escalation 13
  1.0787,                                 !- Year Escalation 14
  1.0942,                                 !- Year Escalation 15
  1.1098,                                 !- Year Escalation 16
  1.1220,                                 !- Year Escalation 17
  1.1308,                                 !- Year Escalation 18
  1.1386,                                 !- Year Escalation 19
  1.1486,                                 !- Year Escalation 20
  1.1619,                                 !- Year Escalation 21
  1.1763,                                 !- Year Escalation 22
  1.1918,                                 !- Year Escalation 23
  1.2118,                                 !- Year Escalation 24
  1.2284,                                 !- Year Escalation 25
  1.2439,                                 !- Year Escalation 26
  1.2605,                                 !- Year Escalation 27
  1.2772,                                 !- Year Escalation 28
  1.2938,                                 !- Year Escalation 29
  1.3115;                                 !- Year Escalation 30

LifeCycleCost:UsePriceEscalation,
  U.S. Avg  Commercial-Coal,              !- Name
  Coal,                                   !- Resource
  2011,                                   !- Escalation Start Year
  January,                                !- Escalation Start Month
  0.9970,                                 !- Year Escalation 1
  1.0089,                                 !- Year Escalation 2
  1.0089,                                 !- Year Escalation 3
  0.9941,                                 !- Year Escalation 4
  0.9941,                                 !- Year Escalation 5
  1.0000,                                 !- Year Escalation 6
  1.0030,                                 !- Year Escalation 7
  1.0059,                                 !- Year Escalation 8
  1.0089,                                 !- Year Escalation 9
  1.0119,                                 !- Year Escalation 10
  1.0148,                                 !- Year Escalation 11
  1.0178,                                 !- Year Escalation 12
  1.0208,                                 !- Year Escalation 13
  1.0267,                                 !- Year Escalation 14
  1.0297,                                 !- Year Escalation 15
  1.0356,                                 !- Year Escalation 16
  1.0415,                                 !- Year Escalation 17
  1.0534,                                 !- Year Escalation 18
  1.0564,                                 !- Year Escalation 19
  1.0593,                                 !- Year Escalation 20
  1.0653,                                 !- Year Escalation 21
  1.0712,                                 !- Year Escalation 22
  1.0742,                                 !- Year Escalation 23
  1.0801,                                 !- Year Escalation 24
  1.0831,                                 !- Year Escalation 25
  1.0831,                                 !- Year Escalation 26
  1.0861,                                 !- Year Escalation 27
  1.0890,                                 !- Year Escalation 28
  1.0920,                                 !- Year Escalation 29
  1.0950;                                 !- Year Escalation 30

Building,
  Building 1,                             !- Name
  ,                                       !- North Axis {deg}
  ,                                       !- Terrain
  ,                                       !- Loads Convergence Tolerance Value
  ,                                       !- Temperature Convergence Tolerance Value {deltaC}
  ,                                       !- Solar Distribution
  ,                                       !- Maximum Number of Warmup Days
  ;                                       !- Minimum Number of Warmup Days

SimulationControl,
  No,                                     !- Do Zone Sizing Calculation
  No,                                     !- Do System Sizing Calculation
  No,                                     !- Do Plant Sizing Calculation
  Yes,                                    !- Run Simulation for Sizing Periods
  Yes;                                    !- Run Simulation for Weather File Run Periods

ProgramControl,
  1;                                      !- Number of Threads Allowed

Sizing:Parameters,
  1.25,                                   !- Heating Sizing Factor
  1.15;                                   !- Cooling Sizing Factor

RunPeriod,
  Run Period 1,                           !- Name
  1,                                      !- Begin Month
  1,                                      !- Begin Day of Month
  12,                                     !- End Month
  31,                                     !- End Day of Month
  Thursday,                               !- Day of Week for Start Day
  No,                                     !- Use Weather File Holidays and Special Days
  No,                                     !- Use Weather File Daylight Saving Period
  No,                                     !- Apply Weekend Holiday Rule
  Yes,                                    !- Use Weather File Rain Indicators
  Yes,                                    !- Use Weather File Snow Indicators
  1;                                      !- Number of Times Runperiod to be Repeated

GlobalGeometryRules,
  UpperLeftCorner,                        !- Starting Vertex Position
  Counterclockwise,                       !- Vertex Entry Direction
  Relative,                               !- Coordinate System
  Relative,                               !- Daylighting Reference Point Coordinate System
  Relative;                               !- Rectangular Surface Coordinate System

Schedule:Day:Interval,
  RefrigeratorSummer,                     !- Name
  ,                                       !- Schedule Type Limits Name
  No,                                     !- Interpolate to Timestep
  01:00,                                  !- Time 1 {hh:mm}
  0.8,                                    !- Value Until Time 1
  02:00,                                  !- Time 2 {hh:mm}
  0.78,                                   !- Value Until Time 2
  03:00,                                  !- Time 3 {hh:mm}
  0.76,                                   !- Value Until Time 3
  04:00,                                  !- Time 4 {hh:mm}
  0.74,                                   !- Value Until Time 4
  05:00,                                  !- Time 5 {hh:mm}
  0.72,                                   !- Value Until Time 5
  06:00,                                  !- Time 6 {hh:mm}
  0.72,                                   !- Value Until Time 6
  07:00,                                  !- Time 7 {hh:mm}
  0.76,                                   !- Value Until Time 7
  08:00,                                  !- Time 8 {hh:mm}
  0.8,                                    !- Value Until Time 8
  09:00,                                  !- Time 9 {hh:mm}
  0.82,                                   !- Value Until Time 9
  10:00,                                  !- Time 10 {hh:mm}
  0.82,                                   !- Value Until Time 10
  11:00,                                  !- Time 11 {hh:mm}
  0.8,                                    !- Value Until Time 11
  12:00,                                  !- Time 12 {hh:mm}
  0.8,                                    !- Value Until Time 12
  13:00,                                  !- Time 13 {hh:mm}
  0.84,                                   !- Value Until Time 13
  14:00,                                  !- Time 14 {hh:mm}
  0.84,                                   !- Value Until Time 14
  15:00,                                  !- Time 15 {hh:mm}
  0.84,                                   !- Value Until Time 15
  16:00,                                  !- Time 16 {hh:mm}
  0.82,                                   !- Value Until Time 16
  17:00,                                  !- Time 17 {hh:mm}
  0.88,                                   !- Value Until Time 17
  18:00,                                  !- Time 18 {hh:mm}
  0.96,                                   !- Value Until Time 18
  19:00,                                  !- Time 19 {hh:mm}
  1,                                      !- Value Until Time 19
  20:00,                                  !- Time 20 {hh:mm}
  0.96,                                   !- Value Until Time 20
  21:00,                                  !- Time 21 {hh:mm}
  0.94,                                   !- Value Until Time 21
  22:00,                                  !- Time 22 {hh:mm}
  0.92,                                   !- Value Until Time 22
  23:00,                                  !- Time 23 {hh:mm}
  0.88,                                   !- Value Until Time 23
  24:00,                                  !- Time 24 {hh:mm}
  0.82;                                   !- Value Until Time 24

Schedule:Day:Interval,
  RefrigeratorSummer 1,                   !- Name
  ,                                       !- Schedule Type Limits Name
  No,                                     !- Interpolate to Timestep
  01:00,                                  !- Time 1 {hh:mm}
  0.8,                                    !- Value Until Time 1
  02:00,                                  !- Time 2 {hh:mm}
  0.78,                                   !- Value Until Time 2
  03:00,                                  !- Time 3 {hh:mm}
  0.76,                                   !- Value Until Time 3
  04:00,                                  !- Time 4 {hh:mm}
  0.74,                                   !- Value Until Time 4
  05:00,                                  !- Time 5 {hh:mm}
  0.72,                                   !- Value Until Time 5
  06:00,                                  !- Time 6 {hh:mm}
  0.72,                                   !- Value Until Time 6
  07:00,                                  !- Time 7 {hh:mm}
  0.76,                                   !- Value Until Time 7
  08:00,                                  !- Time 8 {hh:mm}
  0.8,                                    !- Value Until Time 8
  09:00,                                  !- Time 9 {hh:mm}
  0.82,                                   !- Value Until Time 9
  10:00,                                  !- Time 10 {hh:mm}
  0.82,                                   !- Value Until Time 10
  11:00,                                  !- Time 11 {hh:mm}
  0.8,                                    !- Value Until Time 11
  12:00,                                  !- Time 12 {hh:mm}
  0.8,                                    !- Value Until Time 12
  13:00,                                  !- Time 13 {hh:mm}
  0.84,                                   !- Value Until Time 13
  14:00,                                  !- Time 14 {hh:mm}
  0.84,                                   !- Value Until Time 14
  15:00,                                  !- Time 15 {hh:mm}
  0.84,                                   !- Value Until Time 15
  16:00,                                  !- Time 16 {hh:mm}
  0.82,                                   !- Value Until Time 16
  17:00,                                  !- Time 17 {hh:mm}
  0.88,                                   !- Value Until Time 17
  18:00,                                  !- Time 18 {hh:mm}
  0.96,                                   !- Value Until Time 18
  19:00,                                  !- Time 19 {hh:mm}
  1,                                      !- Value Until Time 19
  20:00,                                  !- Time 20 {hh:mm}
  0.96,                                   !- Value Until Time 20
  21:00,                                  !- Time 21 {hh:mm}
  0.94,                                   !- Value Until Time 21
  22:00,                                  !- Time 22 {hh:mm}
  0.92,                                   !- Value Until Time 22
  23:00,                                  !- Time 23 {hh:mm}
  0.88,                                   !- Value Until Time 23
  24:00,                                  !- Time 24 {hh:mm}
  0.82;                                   !- Value Until Time 24

Schedule:Day:Interval,
  RefrigeratorWeekday10,                  !- Name
  ,                                       !- Schedule Type Limits Name
  No,                                     !- Interpolate to Timestep
  01:00,                                  !- Time 1 {hh:mm}
  0.67956204379562,                       !- Value Until Time 1
  02:00,                                  !- Time 2 {hh:mm}
  0.66257299270073,                       !- Value Until Time 2
  03:00,                                  !- Time 3 {hh:mm}
  0.645583941605839,                      !- Value Until Time 3
  04:00,                                  !- Time 4 {hh:mm}
  0.628594890510949,                      !- Value Until Time 4
  05:00,                                  !- Time 5 {hh:mm}
  0.611605839416058,                      !- Value Until Time 5
  06:00,                                  !- Time 6 {hh:mm}
  0.611605839416058,                      !- Value Until Time 6
  07:00,                                  !- Time 7 {hh:mm}
  0.645583941605839,                      !- Value Until Time 7
  08:00,                                  !- Time 8 {hh:mm}
  0.67956204379562,                       !- Value Until Time 8
  09:00,                                  !- Time 9 {hh:mm}
  0.696551094890511,                      !- Value Until Time 9
  10:00,                                  !- Time 10 {hh:mm}
  0.696551094890511,                      !- Value Until Time 10
  11:00,                                  !- Time 11 {hh:mm}
  0.67956204379562,                       !- Value Until Time 11
  12:00,                                  !- Time 12 {hh:mm}
  0.67956204379562,                       !- Value Until Time 12
  13:00,                                  !- Time 13 {hh:mm}
  0.713540145985401,                      !- Value Until Time 13
  14:00,                                  !- Time 14 {hh:mm}
  0.713540145985401,                      !- Value Until Time 14
  15:00,                                  !- Time 15 {hh:mm}
  0.713540145985401,                      !- Value Until Time 15
  16:00,                                  !- Time 16 {hh:mm}
  0.696551094890511,                      !- Value Until Time 16
  17:00,                                  !- Time 17 {hh:mm}
  0.747518248175182,                      !- Value Until Time 17
  18:00,                                  !- Time 18 {hh:mm}
  0.815474452554744,                      !- Value Until Time 18
  19:00,                                  !- Time 19 {hh:mm}
  0.849452554744526,                      !- Value Until Time 19
  20:00,                                  !- Time 20 {hh:mm}
  0.815474452554744,                      !- Value Until Time 20
  21:00,                                  !- Time 21 {hh:mm}
  0.798485401459854,                      !- Value Until Time 21
  22:00,                                  !- Time 22 {hh:mm}
  0.781496350364963,                      !- Value Until Time 22
  23:00,                                  !- Time 23 {hh:mm}
  0.747518248175182,                      !- Value Until Time 23
  24:00,                                  !- Time 24 {hh:mm}
  0.696551094890511;                      !- Value Until Time 24

Schedule:Day:Interval,
  RefrigeratorWeekday11,                  !- Name
  ,                                       !- Schedule Type Limits Name
  No,                                     !- Interpolate to Timestep
  01:00,                                  !- Time 1 {hh:mm}
  0.675182481751825,                      !- Value Until Time 1
  02:00,                                  !- Time 2 {hh:mm}
  0.658302919708029,                      !- Value Until Time 2
  03:00,                                  !- Time 3 {hh:mm}
  0.641423357664234,                      !- Value Until Time 3
  04:00,                                  !- Time 4 {hh:mm}
  0.624543795620438,                      !- Value Until Time 4
  05:00,                                  !- Time 5 {hh:mm}
  0.607664233576642,                      !- Value Until Time 5
  06:00,                                  !- Time 6 {hh:mm}
  0.607664233576642,                      !- Value Until Time 6
  07:00,                                  !- Time 7 {hh:mm}
  0.641423357664234,                      !- Value Until Time 7
  08:00,                                  !- Time 8 {hh:mm}
  0.675182481751825,                      !- Value Until Time 8
  09:00,                                  !- Time 9 {hh:mm}
  0.69206204379562,                       !- Value Until Time 9
  10:00,                                  !- Time 10 {hh:mm}
  0.69206204379562,                       !- Value Until Time 10
  11:00,                                  !- Time 11 {hh:mm}
  0.675182481751825,                      !- Value Until Time 11
  12:00,                                  !- Time 12 {hh:mm}
  0.675182481751825,                      !- Value Until Time 12
  13:00,                                  !- Time 13 {hh:mm}
  0.708941605839416,                      !- Value Until Time 13
  14:00,                                  !- Time 14 {hh:mm}
  0.708941605839416,                      !- Value Until Time 14
  15:00,                                  !- Time 15 {hh:mm}
  0.708941605839416,                      !- Value Until Time 15
  16:00,                                  !- Time 16 {hh:mm}
  0.69206204379562,                       !- Value Until Time 16
  17:00,                                  !- Time 17 {hh:mm}
  0.742700729927007,                      !- Value Until Time 17
  18:00,                                  !- Time 18 {hh:mm}
  0.81021897810219,                       !- Value Until Time 18
  19:00,                                  !- Time 19 {hh:mm}
  0.843978102189781,                      !- Value Until Time 19
  20:00,                                  !- Time 20 {hh:mm}
  0.81021897810219,                       !- Value Until Time 20
  21:00,                                  !- Time 21 {hh:mm}
  0.793339416058394,                      !- Value Until Time 21
  22:00,                                  !- Time 22 {hh:mm}
  0.776459854014598,                      !- Value Until Time 22
  23:00,                                  !- Time 23 {hh:mm}
  0.742700729927007,                      !- Value Until Time 23
  24:00,                                  !- Time 24 {hh:mm}
  0.69206204379562;                       !- Value Until Time 24

Schedule:Day:Interval,
  RefrigeratorWeekday12,                  !- Name
  ,                                       !- Schedule Type Limits Name
  No,                                     !- Interpolate to Timestep
  01:00,                                  !- Time 1 {hh:mm}
  0.610948905109489,                      !- Value Until Time 1
  02:00,                                  !- Time 2 {hh:mm}
  0.595675182481752,                      !- Value Until Time 2
  03:00,                                  !- Time 3 {hh:mm}
  0.580401459854014,                      !- Value Until Time 3
  04:00,                                  !- Time 4 {hh:mm}
  0.565127737226277,                      !- Value Until Time 4
  05:00,                                  !- Time 5 {hh:mm}
  0.54985401459854,                       !- Value Until Time 5
  06:00,                                  !- Time 6 {hh:mm}
  0.54985401459854,                       !- Value Until Time 6
  07:00,                                  !- Time 7 {hh:mm}
  0.580401459854014,                      !- Value Until Time 7
  08:00,                                  !- Time 8 {hh:mm}
  0.610948905109489,                      !- Value Until Time 8
  09:00,                                  !- Time 9 {hh:mm}
  0.626222627737226,                      !- Value Until Time 9
  10:00,                                  !- Time 10 {hh:mm}
  0.626222627737226,                      !- Value Until Time 10
  11:00,                                  !- Time 11 {hh:mm}
  0.610948905109489,                      !- Value Until Time 11
  12:00,                                  !- Time 12 {hh:mm}
  0.610948905109489,                      !- Value Until Time 12
  13:00,                                  !- Time 13 {hh:mm}
  0.641496350364963,                      !- Value Until Time 13
  14:00,                                  !- Time 14 {hh:mm}
  0.641496350364963,                      !- Value Until Time 14
  15:00,                                  !- Time 15 {hh:mm}
  0.641496350364963,                      !- Value Until Time 15
  16:00,                                  !- Time 16 {hh:mm}
  0.626222627737226,                      !- Value Until Time 16
  17:00,                                  !- Time 17 {hh:mm}
  0.672043795620438,                      !- Value Until Time 17
  18:00,                                  !- Time 18 {hh:mm}
  0.733138686131387,                      !- Value Until Time 18
  19:00,                                  !- Time 19 {hh:mm}
  0.763686131386861,                      !- Value Until Time 19
  20:00,                                  !- Time 20 {hh:mm}
  0.733138686131387,                      !- Value Until Time 20
  21:00,                                  !- Time 21 {hh:mm}