
OS:Version,
  {b801fe47-df16-4cd7-966e-f5893e3cd18c}, !- Handle
  1.3.1;                                  !- Version Identifier

OS:WindowMaterial:SimpleGlazingSystem,
  {b861dcfa-4402-413b-a82d-a339e28e0338}, !- Handle
  Triple-Pane Glass,                      !- Name
  1.63699550828656,                       !- U-Factor {W/m2-K}
  0.381364139202683;                      !- Solar Heat Gain Coefficient

OS:Construction,
  {b6f11f10-ee8a-4283-9cb4-4d04bd3367d3}, !- Handle
  Triple-Pane High-Gain Low-E Non-metal Frame Argon Fill, !- Name
  ,                                       !- Surface Rendering Name
  {b861dcfa-4402-413b-a82d-a339e28e0338}; !- Layer 1

OS:StandardsInformation:Construction,
  {80128cb6-1ae7-48a7-9de3-7e8b9682f6bc}, !- Handle
  {b6f11f10-ee8a-4283-9cb4-4d04bd3367d3}, !- Construction Name
  ExteriorWindow;                         !- Intended Surface Type

