!- NOTE: Auto-generated from /test/osw_files/SFA_4units_1story_SL_UA_Offset.osw

OS:Version,
  {6c21ae1c-dbf2-4756-9aad-eca6058c2030}, !- Handle
  1.14.0;                                  !- Version Identifier

OS:Building,
  {bf305633-c5a1-4881-9edf-ca5e1a8e1274}, !- Handle
  Building,                               !- Name
  ,                                       !- Building Sector Type
  ,                                       !- North Axis {deg}
  ,                                       !- Nominal Floor to Floor Height {m}
  ,                                       !- Space Type Name
  ,                                       !- Default Construction Set Name
  ,                                       !- Default Schedule Set Name
  1,                                      !- Standards Number of Stories
  1,                                      !- Standards Number of Above Ground Stories
  SingleFamilyAttached,                   !- Standards Building Type
  4;                                      !- Standards Number of Living Units

OS:YearDescription,
  {513d8dda-86cb-442a-b01c-1f7f0e0ac70e}; !- Handle

OS:SimulationControl,
  {2c487a4c-bac9-4ac5-b669-1e49d9da7c2b}, !- Handle
  ,                                       !- Do Zone Sizing Calculation
  ,                                       !- Do System Sizing Calculation
  ,                                       !- Do Plant Sizing Calculation
  No,                                     !- Run Simulation for Sizing Periods
  ;                                       !- Run Simulation for Weather File Run Periods

OS:Timestep,
  {4ebc9f1e-4707-402e-9844-67eb1ffbd522}, !- Handle
  6;                                      !- Number of Timesteps per Hour

OS:RunPeriod,
  {28df894d-6af9-4fb8-8f56-df1753344aa3}, !- Handle
  Run Period,                             !- Name
  1,                                      !- Begin Month
  1,                                      !- Begin Day of Month
  12,                                     !- End Month
  31,                                     !- End Day of Month
  ,                                       !- Use Weather File Holidays and Special Days
  ,                                       !- Use Weather File Daylight Saving Period
  ,                                       !- Apply Weekend Holiday Rule
  ,                                       !- Use Weather File Rain Indicators
  ,                                       !- Use Weather File Snow Indicators
  ;                                       !- Number of Times Runperiod to be Repeated

OS:Sizing:Parameters,
  {dde5af6f-7923-4600-a28a-7556673a0266}, !- Handle
  1.0,                                    !- Heating Sizing Factor
  1.0;                                    !- Cooling Sizing Factor

OS:ShadowCalculation,
  {ca758bea-4416-4626-9bba-3d8795c79bd6}, !- Handle
  20,                                     !- Calculation Frequency
  200;                                    !- Maximum Figures in Shadow Overlap Calculations

OS:SurfaceConvectionAlgorithm:Inside,
  {aaabfc36-718a-4ab0-b622-f186ebb45230}, !- Handle
  TARP;                                   !- Algorithm

OS:SurfaceConvectionAlgorithm:Outside,
  {9a0a9f6f-4bbd-4b12-a121-9492a1fcd7d6}, !- Handle
  DOE-2;                                  !- Algorithm

OS:HeatBalanceAlgorithm,
  {9d93e563-e1e0-46d7-9e39-d1c8aceb7212}, !- Handle
  ConductionTransferFunction,             !- Algorithm
  200;                                    !- Surface Temperature Upper Limit {C}

OS:ZoneCapacitanceMultiplier:ResearchSpecial,
  {6bfced16-b16f-47f6-8223-f7e267d75d19}, !- Handle
  ,                                       !- Temperature Capacity Multiplier
  15,                                     !- Humidity Capacity Multiplier
  ;                                       !- Carbon Dioxide Capacity Multiplier

OS:ThermalZone,
  {ba3b2701-2ff1-431a-a238-d31f07c08c61}, !- Handle
  living zone,                            !- Name
  ,                                       !- Multiplier
  ,                                       !- Ceiling Height {m}
  ,                                       !- Volume {m3}
  ,                                       !- Floor Area {m2}
  ,                                       !- Zone Inside Convection Algorithm
  ,                                       !- Zone Outside Convection Algorithm
  ,                                       !- Zone Conditioning Equipment List Name
  {4a5236b9-de86-44ae-9951-fd33cc079a58}, !- Zone Air Inlet Port List
  {e46a67dc-36ba-4a93-b0b4-b0a03dab181e}, !- Zone Air Exhaust Port List
  {62dae3d5-0ba8-49c3-b390-d5e015999713}, !- Zone Air Node Name
  ,                                       !- Zone Return Air Node Name
  ,                                       !- Primary Daylighting Control Name
  ,                                       !- Fraction of Zone Controlled by Primary Daylighting Control
  ,                                       !- Secondary Daylighting Control Name
  ,                                       !- Fraction of Zone Controlled by Secondary Daylighting Control
  ,                                       !- Illuminance Map Name
  ,                                       !- Group Rendering Name
  ,                                       !- Thermostat Name
  No;                                     !- Use Ideal Air Loads

OS:Node,
  {c9a6028a-f35a-4af1-b4b4-3f84cb1d20c1}, !- Handle
  Node 1,                                 !- Name
  {62dae3d5-0ba8-49c3-b390-d5e015999713}, !- Inlet Port
  ;                                       !- Outlet Port

OS:Connection,
  {62dae3d5-0ba8-49c3-b390-d5e015999713}, !- Handle
  {ee34577a-a98d-48d4-9236-0b3059e8eae1}, !- Name
  {ba3b2701-2ff1-431a-a238-d31f07c08c61}, !- Source Object
  11,                                     !- Outlet Port
  {c9a6028a-f35a-4af1-b4b4-3f84cb1d20c1}, !- Target Object
  2;                                      !- Inlet Port

OS:PortList,
  {4a5236b9-de86-44ae-9951-fd33cc079a58}, !- Handle
  Port List 1,                            !- Name
  {ba3b2701-2ff1-431a-a238-d31f07c08c61}; !- HVAC Component

OS:PortList,
  {e46a67dc-36ba-4a93-b0b4-b0a03dab181e}, !- Handle
  Port List 2,                            !- Name
  {ba3b2701-2ff1-431a-a238-d31f07c08c61}; !- HVAC Component

OS:Sizing:Zone,
  {1f0cc9c7-3421-4fac-b0d6-07982f815bf4}, !- Handle
  {ba3b2701-2ff1-431a-a238-d31f07c08c61}, !- Zone or ZoneList Name
  SupplyAirTemperature,                   !- Zone Cooling Design Supply Air Temperature Input Method
  14,                                     !- Zone Cooling Design Supply Air Temperature {C}
  11.11,                                  !- Zone Cooling Design Supply Air Temperature Difference {deltaC}
  SupplyAirTemperature,                   !- Zone Heating Design Supply Air Temperature Input Method
  40,                                     !- Zone Heating Design Supply Air Temperature {C}
  11.11,                                  !- Zone Heating Design Supply Air Temperature Difference {deltaC}
  0.0085,                                 !- Zone Cooling Design Supply Air Humidity Ratio {kg-H2O/kg-air}
  0.008,                                  !- Zone Heating Design Supply Air Humidity Ratio {kg-H2O/kg-air}
  ,                                       !- Zone Heating Sizing Factor
  ,                                       !- Zone Cooling Sizing Factor
  DesignDay,                              !- Cooling Design Air Flow Method
  ,                                       !- Cooling Design Air Flow Rate {m3/s}
  ,                                       !- Cooling Minimum Air Flow per Zone Floor Area {m3/s-m2}
  ,                                       !- Cooling Minimum Air Flow {m3/s}
  ,                                       !- Cooling Minimum Air Flow Fraction
  DesignDay,                              !- Heating Design Air Flow Method
  ,                                       !- Heating Design Air Flow Rate {m3/s}
  ,                                       !- Heating Maximum Air Flow per Zone Floor Area {m3/s-m2}
  ,                                       !- Heating Maximum Air Flow {m3/s}
  ,                                       !- Heating Maximum Air Flow Fraction
  ,                                       !- Design Zone Air Distribution Effectiveness in Cooling Mode
  ,                                       !- Design Zone Air Distribution Effectiveness in Heating Mode
  No,                                     !- Account for Dedicated Outdoor Air System
  NeutralSupplyAir,                       !- Dedicated Outdoor Air System Control Strategy
  autosize,                               !- Dedicated Outdoor Air Low Setpoint Temperature for Design {C}
  autosize;                               !- Dedicated Outdoor Air High Setpoint Temperature for Design {C}

OS:ZoneHVAC:EquipmentList,
  {c1208c77-6422-4cd0-8908-3c9982ee9e5e}, !- Handle
  Zone HVAC Equipment List 1,             !- Name
  {ba3b2701-2ff1-431a-a238-d31f07c08c61}; !- Thermal Zone

OS:Space,
  {597a17fb-293e-425e-9a19-26214c89a5f9}, !- Handle
  living space,                           !- Name
  ,                                       !- Space Type Name
  ,                                       !- Default Construction Set Name
  ,                                       !- Default Schedule Set Name
  ,                                       !- Direction of Relative North {deg}
  ,                                       !- X Origin {m}
  ,                                       !- Y Origin {m}
  ,                                       !- Z Origin {m}
  ,                                       !- Building Story Name
  {ba3b2701-2ff1-431a-a238-d31f07c08c61}, !- Thermal Zone Name
  ,                                       !- Part of Total Floor Area
  ,                                       !- Design Specification Outdoor Air Object Name
  {38e7881e-7213-47ab-9a6b-4bac6f8ef0f9}; !- Building Unit Name

OS:Surface,
  {c83c8131-4c2c-448b-a25a-3e06c31e3385}, !- Handle
  Surface 1,                              !- Name
  Floor,                                  !- Surface Type
  ,                                       !- Construction Name
  {597a17fb-293e-425e-9a19-26214c89a5f9}, !- Space Name
  Ground,                                 !- Outside Boundary Condition
  ,                                       !- Outside Boundary Condition Object
  NoSun,                                  !- Sun Exposure
  NoWind,                                 !- Wind Exposure
  ,                                       !- View Factor to Ground
  ,                                       !- Number of Vertices
  0, -12.9315688143396, 0,                !- X,Y,Z Vertex 1 {m}
  0, 0, 0,                                !- X,Y,Z Vertex 2 {m}
  6.46578440716979, 0, 0,                 !- X,Y,Z Vertex 3 {m}
  6.46578440716979, -12.9315688143396, 0; !- X,Y,Z Vertex 4 {m}

OS:Surface,
  {1636606e-7802-471b-afe3-119d98d26688}, !- Handle
  Surface 2,                              !- Name
  Wall,                                   !- Surface Type
  ,                                       !- Construction Name
  {597a17fb-293e-425e-9a19-26214c89a5f9}, !- Space Name
  Outdoors,                               !- Outside Boundary Condition
  ,                                       !- Outside Boundary Condition Object
  SunExposed,                             !- Sun Exposure
  WindExposed,                            !- Wind Exposure
  ,                                       !- View Factor to Ground
  ,                                       !- Number of Vertices
  0, 0, 2.4384,                           !- X,Y,Z Vertex 1 {m}
  0, 0, 0,                                !- X,Y,Z Vertex 2 {m}
  0, -12.9315688143396, 0,                !- X,Y,Z Vertex 3 {m}
  0, -12.9315688143396, 2.4384;           !- X,Y,Z Vertex 4 {m}

OS:Surface,
  {712f7fa3-6a99-442f-8494-f76d53c058ca}, !- Handle
  Surface 3,                              !- Name
  Wall,                                   !- Surface Type
  ,                                       !- Construction Name
  {597a17fb-293e-425e-9a19-26214c89a5f9}, !- Space Name
  Outdoors,                               !- Outside Boundary Condition
  ,                                       !- Outside Boundary Condition Object
  SunExposed,                             !- Sun Exposure
  WindExposed,                            !- Wind Exposure
  ,                                       !- View Factor to Ground
  ,                                       !- Number of Vertices
  6.46578440716979, 0, 2.4384,            !- X,Y,Z Vertex 1 {m}
  6.46578440716979, 0, 0,                 !- X,Y,Z Vertex 2 {m}
  0, 0, 0,                                !- X,Y,Z Vertex 3 {m}
  0, 0, 2.4384;                           !- X,Y,Z Vertex 4 {m}

OS:Surface,
  {8ae2593a-2f7b-41e4-bb2f-db2c91ae011c}, !- Handle
  Surface 4,                              !- Name
  Wall,                                   !- Surface Type
  ,                                       !- Construction Name
  {597a17fb-293e-425e-9a19-26214c89a5f9}, !- Space Name
  Surface,                                !- Outside Boundary Condition
  {9517c47f-fd13-4437-aa57-cc7fd04697f4}, !- Outside Boundary Condition Object
  NoSun,                                  !- Sun Exposure
  NoWind,                                 !- Wind Exposure
  ,                                       !- View Factor to Ground
  ,                                       !- Number of Vertices
  6.46578440716979, -11.1027688143396, 2.4384, !- X,Y,Z Vertex 1 {m}
  6.46578440716979, -11.1027688143396, 0, !- X,Y,Z Vertex 2 {m}
  6.46578440716979, 0, 0,                 !- X,Y,Z Vertex 3 {m}
  6.46578440716979, 0, 2.4384;            !- X,Y,Z Vertex 4 {m}

OS:Surface,
  {f630f90c-8801-45bd-82f2-4fd75305dc90}, !- Handle
  Surface 5,                              !- Name
  Wall,                                   !- Surface Type
  ,                                       !- Construction Name
  {597a17fb-293e-425e-9a19-26214c89a5f9}, !- Space Name
  Outdoors,                               !- Outside Boundary Condition
  ,                                       !- Outside Boundary Condition Object
  SunExposed,                             !- Sun Exposure
  WindExposed,                            !- Wind Exposure
  ,                                       !- View Factor to Ground
  ,                                       !- Number of Vertices
  0, -12.9315688143396, 2.4384,           !- X,Y,Z Vertex 1 {m}
  0, -12.9315688143396, 0,                !- X,Y,Z Vertex 2 {m}
  6.46578440716979, -12.9315688143396, 0, !- X,Y,Z Vertex 3 {m}
  6.46578440716979, -12.9315688143396, 2.4384; !- X,Y,Z Vertex 4 {m}

OS:Surface,
  {ee08a167-78b4-4d2e-8dad-6b92367a0ba5}, !- Handle
  Surface 6,                              !- Name
  RoofCeiling,                            !- Surface Type
  ,                                       !- Construction Name
  {597a17fb-293e-425e-9a19-26214c89a5f9}, !- Space Name
  Surface,                                !- Outside Boundary Condition
  {e92bcd01-e61e-4e8a-85d4-b841434c910e}, !- Outside Boundary Condition Object
  NoSun,                                  !- Sun Exposure
  NoWind,                                 !- Wind Exposure
  ,                                       !- View Factor to Ground
  ,                                       !- Number of Vertices
  6.46578440716979, -12.9315688143396, 2.4384, !- X,Y,Z Vertex 1 {m}
  6.46578440716979, 0, 2.4384,            !- X,Y,Z Vertex 2 {m}
  0, 0, 2.4384,                           !- X,Y,Z Vertex 3 {m}
  0, -12.9315688143396, 2.4384;           !- X,Y,Z Vertex 4 {m}

OS:Surface,
  {e92bcd01-e61e-4e8a-85d4-b841434c910e}, !- Handle
  Surface 7,                              !- Name
  Floor,                                  !- Surface Type
  ,                                       !- Construction Name
  {380fcd2b-8e3e-41df-82ee-6e99163c18ff}, !- Space Name
  Surface,                                !- Outside Boundary Condition
  {ee08a167-78b4-4d2e-8dad-6b92367a0ba5}, !- Outside Boundary Condition Object
  NoSun,                                  !- Sun Exposure
  NoWind,                                 !- Wind Exposure
  ,                                       !- View Factor to Ground
  ,                                       !- Number of Vertices
  0, -12.9315688143396, 2.4384,           !- X,Y,Z Vertex 1 {m}
  0, 0, 2.4384,                           !- X,Y,Z Vertex 2 {m}
  6.46578440716979, 0, 2.4384,            !- X,Y,Z Vertex 3 {m}
  6.46578440716979, -12.9315688143396, 2.4384; !- X,Y,Z Vertex 4 {m}

OS:Surface,
  {e2c16c45-1b55-4850-8cb2-42d3f4d32072}, !- Handle
  Surface 8,                              !- Name
  RoofCeiling,                            !- Surface Type
  ,                                       !- Construction Name
  {380fcd2b-8e3e-41df-82ee-6e99163c18ff}, !- Space Name
  Outdoors,                               !- Outside Boundary Condition
  ,                                       !- Outside Boundary Condition Object
  SunExposed,                             !- Sun Exposure
  WindExposed,                            !- Wind Exposure
  ,                                       !- View Factor to Ground
  ,                                       !- Number of Vertices
  3.2328922035849, 0, 4.05484610179245,   !- X,Y,Z Vertex 1 {m}
  0, 0, 2.4384,                           !- X,Y,Z Vertex 2 {m}
  0, -12.9315688143396, 2.4384,           !- X,Y,Z Vertex 3 {m}
  3.2328922035849, -12.9315688143396, 4.05484610179245; !- X,Y,Z Vertex 4 {m}

OS:Surface,
  {fe67cee7-2138-4723-a761-806fbbb1f6c4}, !- Handle
  Surface 9,                              !- Name
  RoofCeiling,                            !- Surface Type
  ,                                       !- Construction Name
  {380fcd2b-8e3e-41df-82ee-6e99163c18ff}, !- Space Name
  Outdoors,                               !- Outside Boundary Condition
  ,                                       !- Outside Boundary Condition Object
  SunExposed,                             !- Sun Exposure
  WindExposed,                            !- Wind Exposure
  ,                                       !- View Factor to Ground
  ,                                       !- Number of Vertices
  3.2328922035849, -12.9315688143396, 4.05484610179245, !- X,Y,Z Vertex 1 {m}
  6.46578440716979, -12.9315688143396, 2.4384, !- X,Y,Z Vertex 2 {m}
  6.46578440716979, 0, 2.4384,            !- X,Y,Z Vertex 3 {m}
  3.2328922035849, 0, 4.05484610179245;   !- X,Y,Z Vertex 4 {m}

OS:Surface,
  {a56ce8df-6eb8-4eac-96d1-f242db1f12fc}, !- Handle
  Surface 10,                             !- Name
  Wall,                                   !- Surface Type
  ,                                       !- Construction Name
  {380fcd2b-8e3e-41df-82ee-6e99163c18ff}, !- Space Name
  Outdoors,                               !- Outside Boundary Condition
  ,                                       !- Outside Boundary Condition Object
  SunExposed,                             !- Sun Exposure
  WindExposed,                            !- Wind Exposure
  ,                                       !- View Factor to Ground
  ,                                       !- Number of Vertices
  3.2328922035849, -12.9315688143396, 4.05484610179245, !- X,Y,Z Vertex 1 {m}
  0, -12.9315688143396, 2.4384,           !- X,Y,Z Vertex 2 {m}
  6.46578440716979, -12.9315688143396, 2.4384; !- X,Y,Z Vertex 3 {m}

OS:Surface,
  {403ca2f7-9948-4ae3-8c70-6b06a3f63ed3}, !- Handle
  Surface 11,                             !- Name
  Wall,                                   !- Surface Type
  ,                                       !- Construction Name
  {380fcd2b-8e3e-41df-82ee-6e99163c18ff}, !- Space Name
  Outdoors,                               !- Outside Boundary Condition
  ,                                       !- Outside Boundary Condition Object
  SunExposed,                             !- Sun Exposure
  WindExposed,                            !- Wind Exposure
  ,                                       !- View Factor to Ground
  ,                                       !- Number of Vertices
  3.2328922035849, 0, 4.05484610179245,   !- X,Y,Z Vertex 1 {m}
  6.46578440716979, 0, 2.4384,            !- X,Y,Z Vertex 2 {m}
  0, 0, 2.4384;                           !- X,Y,Z Vertex 3 {m}

OS:ThermalZone,
  {aa4e5318-6000-4e22-8ab1-bd4ed22f925c}, !- Handle
  living zone|unit 2,                     !- Name
  ,                                       !- Multiplier
  ,                                       !- Ceiling Height {m}
  ,                                       !- Volume {m3}
  ,                                       !- Floor Area {m2}
  ,                                       !- Zone Inside Convection Algorithm
  ,                                       !- Zone Outside Convection Algorithm
  ,                                       !- Zone Conditioning Equipment List Name
  {c6622a70-7354-4af5-8aea-9b033add7ad0}, !- Zone Air Inlet Port List
  {399ecbf4-f8d3-40e3-a6fc-8351dd571547}, !- Zone Air Exhaust Port List
  {f35d66b0-63d8-41e8-b24e-79e3eaff7be1}, !- Zone Air Node Name
  ,                                       !- Zone Return Air Node Name
  ,                                       !- Primary Daylighting Control Name
  ,                                       !- Fraction of Zone Controlled by Primary Daylighting Control
  ,                                       !- Secondary Daylighting Control Name
  ,                                       !- Fraction of Zone Controlled by Secondary Daylighting Control
  ,                                       !- Illuminance Map Name
  ,                                       !- Group Rendering Name
  ,                                       !- Thermostat Name
  No;                                     !- Use Ideal Air Loads

OS:Node,
  {15ce701d-0425-47d5-96ea-dd0b642b478a}, !- Handle
  Node 2,                                 !- Name
  {f35d66b0-63d8-41e8-b24e-79e3eaff7be1}, !- Inlet Port
  ;                                       !- Outlet Port

OS:Connection,
  {f35d66b0-63d8-41e8-b24e-79e3eaff7be1}, !- Handle
  {28cecf8c-4ece-40f3-8121-2af1211bed3c}, !- Name
  {aa4e5318-6000-4e22-8ab1-bd4ed22f925c}, !- Source Object
  11,                                     !- Outlet Port
  {15ce701d-0425-47d5-96ea-dd0b642b478a}, !- Target Object
  2;                                      !- Inlet Port

OS:PortList,
  {c6622a70-7354-4af5-8aea-9b033add7ad0}, !- Handle
  Port List 3,                            !- Name
  {aa4e5318-6000-4e22-8ab1-bd4ed22f925c}; !- HVAC Component

OS:PortList,
  {399ecbf4-f8d3-40e3-a6fc-8351dd571547}, !- Handle
  Port List 4,                            !- Name
  {aa4e5318-6000-4e22-8ab1-bd4ed22f925c}; !- HVAC Component

OS:Sizing:Zone,
  {c071a15a-f1d3-4380-98b8-ac6f65b82e22}, !- Handle
  {aa4e5318-6000-4e22-8ab1-bd4ed22f925c}, !- Zone or ZoneList Name
  SupplyAirTemperature,                   !- Zone Cooling Design Supply Air Temperature Input Method
  14,                                     !- Zone Cooling Design Supply Air Temperature {C}
  11.11,                                  !- Zone Cooling Design Supply Air Temperature Difference {deltaC}
  SupplyAirTemperature,                   !- Zone Heating Design Supply Air Temperature Input Method
  40,                                     !- Zone Heating Design Supply Air Temperature {C}
  11.11,                                  !- Zone Heating Design Supply Air Temperature Difference {deltaC}
  0.0085,                                 !- Zone Cooling Design Supply Air Humidity Ratio {kg-H2O/kg-air}
  0.008,                                  !- Zone Heating Design Supply Air Humidity Ratio {kg-H2O/kg-air}
  ,                                       !- Zone Heating Sizing Factor
  ,                                       !- Zone Cooling Sizing Factor
  DesignDay,                              !- Cooling Design Air Flow Method
  ,                                       !- Cooling Design Air Flow Rate {m3/s}
  ,                                       !- Cooling Minimum Air Flow per Zone Floor Area {m3/s-m2}
  ,                                       !- Cooling Minimum Air Flow {m3/s}
  ,                                       !- Cooling Minimum Air Flow Fraction
  DesignDay,                              !- Heating Design Air Flow Method
  ,                                       !- Heating Design Air Flow Rate {m3/s}
  ,                                       !- Heating Maximum Air Flow per Zone Floor Area {m3/s-m2}
  ,                                       !- Heating Maximum Air Flow {m3/s}
  ,                                       !- Heating Maximum Air Flow Fraction
  ,                                       !- Design Zone Air Distribution Effectiveness in Cooling Mode
  ,                                       !- Design Zone Air Distribution Effectiveness in Heating Mode
  No,                                     !- Account for Dedicated Outdoor Air System
  NeutralSupplyAir,                       !- Dedicated Outdoor Air System Control Strategy
  autosize,                               !- Dedicated Outdoor Air Low Setpoint Temperature for Design {C}
  autosize;                               !- Dedicated Outdoor Air High Setpoint Temperature for Design {C}

OS:ZoneHVAC:EquipmentList,
  {d45bf66b-51b5-4433-98b7-a7dd808a0c09}, !- Handle
  Zone HVAC Equipment List 2,             !- Name
  {aa4e5318-6000-4e22-8ab1-bd4ed22f925c}; !- Thermal Zone

OS:Space,
  {ddc27a50-1942-4526-8807-2f394eb659bc}, !- Handle
  living space|unit 2,                    !- Name
  ,                                       !- Space Type Name
  ,                                       !- Default Construction Set Name
  ,                                       !- Default Schedule Set Name
  -0,                                     !- Direction of Relative North {deg}
  0,                                      !- X Origin {m}
  0,                                      !- Y Origin {m}
  0,                                      !- Z Origin {m}
  ,                                       !- Building Story Name
  {aa4e5318-6000-4e22-8ab1-bd4ed22f925c}, !- Thermal Zone Name
  ,                                       !- Part of Total Floor Area
  ,                                       !- Design Specification Outdoor Air Object Name
  {114b159b-3a42-4be7-bd3b-d410a2eb086c}; !- Building Unit Name

OS:Surface,
  {91fa3390-9788-440c-bb8c-26847e94b4e2}, !- Handle
  Surface 12,                             !- Name
  Floor,                                  !- Surface Type
  ,                                       !- Construction Name
  {ddc27a50-1942-4526-8807-2f394eb659bc}, !- Space Name
  Ground,                                 !- Outside Boundary Condition
  ,                                       !- Outside Boundary Condition Object
  NoSun,                                  !- Sun Exposure
  NoWind,                                 !- Wind Exposure
  ,                                       !- View Factor to Ground
  ,                                       !- Number of Vertices
  6.46578440716979, -11.1027688143396, 0, !- X,Y,Z Vertex 1 {m}
  6.46578440716979, 1.8288, 0,            !- X,Y,Z Vertex 2 {m}
  12.9315688143396, 1.8288, 0,            !- X,Y,Z Vertex 3 {m}
  12.9315688143396, -11.1027688143396, 0; !- X,Y,Z Vertex 4 {m}

OS:Surface,
  {9517c47f-fd13-4437-aa57-cc7fd04697f4}, !- Handle
  Surface 13,                             !- Name
  Wall,                                   !- Surface Type
  ,                                       !- Construction Name
  {ddc27a50-1942-4526-8807-2f394eb659bc}, !- Space Name
  Surface,                                !- Outside Boundary Condition
  {8ae2593a-2f7b-41e4-bb2f-db2c91ae011c}, !- Outside Boundary Condition Object
  NoSun,                                  !- Sun Exposure
  NoWind,                                 !- Wind Exposure
  ,                                       !- View Factor to Ground
  ,                                       !- Number of Vertices
  6.46578440716979, 0, 2.4384,            !- X,Y,Z Vertex 1 {m}
  6.46578440716979, 0, 0,                 !- X,Y,Z Vertex 2 {m}
  6.46578440716979, -11.1027688143396, 0, !- X,Y,Z Vertex 3 {m}
  6.46578440716979, -11.1027688143396, 2.4384; !- X,Y,Z Vertex 4 {m}

OS:Surface,
  {c925aef8-fdcf-4f7f-a8c2-c00b3f4ac3e4}, !- Handle
  Surface 14,                             !- Name
  Wall,                                   !- Surface Type
  ,                                       !- Construction Name
  {ddc27a50-1942-4526-8807-2f394eb659bc}, !- Space Name
  Outdoors,                               !- Outside Boundary Condition
  ,                                       !- Outside Boundary Condition Object
  SunExposed,                             !- Sun Exposure
  WindExposed,                            !- Wind Exposure
  ,                                       !- View Factor to Ground
  ,                                       !- Number of Vertices
  12.9315688143396, 1.8288, 2.4384,       !- X,Y,Z Vertex 1 {m}
  12.9315688143396, 1.8288, 0,            !- X,Y,Z Vertex 2 {m}
  6.46578440716979, 1.8288, 0,            !- X,Y,Z Vertex 3 {m}
  6.46578440716979, 1.8288, 2.4384;       !- X,Y,Z Vertex 4 {m}

OS:Surface,
  {a1c7b837-3450-4066-b155-c5b26689546d}, !- Handle
  Surface 15,                             !- Name
  Wall,                                   !- Surface Type
  ,                                       !- Construction Name
  {ddc27a50-1942-4526-8807-2f394eb659bc}, !- Space Name
  Surface,                                !- Outside Boundary Condition
  {e16604eb-0a1b-4597-abbd-dd0b8d581f54}, !- Outside Boundary Condition Object
  NoSun,                                  !- Sun Exposure
  NoWind,                                 !- Wind Exposure
  ,                                       !- View Factor to Ground
  ,                                       !- Number of Vertices
  12.9315688143396, -11.1027688143396, 2.4384, !- X,Y,Z Vertex 1 {m}
  12.9315688143396, -11.1027688143396, 0, !- X,Y,Z Vertex 2 {m}