
OS:Version,
  {fc003c06-618b-4051-9b37-6b6f71b12672}, !- Handle
  1.12.2;                                 !- Version Identifier

OS:ClimateZones,
  {135edfab-17e7-40db-a436-27d385a8cd6d}, !- Handle
  ,                                       !- Active Institution
  ,                                       !- Active Year
  ASHRAE,                                 !- Climate Zone Institution Name 1
  ANSI/ASHRAE Standard 169,               !- Climate Zone Document Name 1
  2006,                                   !- Climate Zone Document Year 1
  ,                                       !- Climate Zone Value 1
  CEC,                                    !- Climate Zone Institution Name 2
  California Climate Zone Descriptions,   !- Climate Zone Document Name 2
  1995,                                   !- Climate Zone Document Year 2
  ;                                       !- Climate Zone Value 2

OS:YearDescription,
  {513d8dda-86cb-442a-b01c-1f7f0e0ac70e}; !- Handle

OS:RadianceParameters,
  {270a96f1-3c86-4b75-a667-cdf22790e2c8}, !- Handle
  1,                                      !- Accumulated Rays per Record
  0,                                      !- Direct Threshold
  1,                                      !- Direct Certainty
  1,                                      !- Direct Jitter
  1,                                      !- Direct Pretest
  6,                                      !- Ambient Bounces VMX
  2,                                      !- Ambient Bounces DMX
  4050,                                   !- Ambient Divisions VMX
  512,                                    !- Ambient Divisions DMX
  256,                                    !- Ambient Supersamples
  0.001,                                  !- Limit Weight VMX
  0.001,                                  !- Limit Weight DMX
  500,                                    !- Klems Sampling Density
  146;                                    !- Sky Discretization Resolution

OS:SimulationControl,
  {2c487a4c-bac9-4ac5-b669-1e49d9da7c2b}, !- Handle
  ,                                       !- Do Zone Sizing Calculation
  ,                                       !- Do System Sizing Calculation
  ,                                       !- Do Plant Sizing Calculation
  No,                                     !- Run Simulation for Sizing Periods
  ,                                       !- Run Simulation for Weather File Run Periods
  0.04,                                   !- Loads Convergence Tolerance Value
  ,                                       !- Temperature Convergence Tolerance Value {deltaC}
  ,                                       !- Solar Distribution
  ,                                       !- Maximum Number of Warmup Days
  2;                                      !- Minimum Number of Warmup Days

OS:Sizing:Parameters,
  {dde5af6f-7923-4600-a28a-7556673a0266}, !- Handle
  1.25,                                   !- Heating Sizing Factor
  1.15;                                   !- Cooling Sizing Factor

OS:Timestep,
  {4ebc9f1e-4707-402e-9844-67eb1ffbd522}, !- Handle
  2;                                      !- Number of Timesteps per Hour

OS:OutputControl:ReportingTolerances,
  {65797aa2-06a9-45fe-b69d-bc6e060399d3}; !- Handle

OS:ConvergenceLimits,
  {9fc11aba-8822-4f3d-970c-46391ba4040d}; !- Handle

OS:ShadowCalculation,
  {ca758bea-4416-4626-9bba-3d8795c79bd6}, !- Handle
  7,                                      !- Calculation Frequency
  15000;                                  !- Maximum Figures in Shadow Overlap Calculations

OS:SurfaceConvectionAlgorithm:Inside,
  {aaabfc36-718a-4ab0-b622-f186ebb45230}, !- Handle
  TARP;                                   !- Algorithm

OS:SurfaceConvectionAlgorithm:Outside,
  {9a0a9f6f-4bbd-4b12-a121-9492a1fcd7d6}, !- Handle
  DOE-2;                                  !- Algorithm

OS:HeatBalanceAlgorithm,
  {9d93e563-e1e0-46d7-9e39-d1c8aceb7212}, !- Handle
  ConductionTransferFunction,             !- Algorithm
  200;                                    !- Surface Temperature Upper Limit {C}

OS:ZoneAirHeatBalanceAlgorithm,
  {8520d93e-310f-4696-9bcd-36228bfdd743}, !- Handle
  AnalyticalSolution;                     !- Algorithm

OS:ZoneAirContaminantBalance,
  {eb5fc3ae-fb22-4160-8fcb-3e3b22b000d3}; !- Handle

OS:ZoneCapacitanceMultiplier:ResearchSpecial,
  {4020ce4f-5a7a-4849-8028-8305d7b751b1}, !- Handle
  ,                                       !- Temperature Capacity Multiplier
  ,                                       !- Humidity Capacity Multiplier
  ;                                       !- Carbon Dioxide Capacity Multiplier

OS:RunPeriod,
  {28df894d-6af9-4fb8-8f56-df1753344aa3}, !- Handle
  Run Period 1,                           !- Name
  1,                                      !- Begin Month
  1,                                      !- Begin Day of Month
  12,                                     !- End Month
  31,                                     !- End Day of Month
  ,                                       !- Use Weather File Holidays and Special Days
  ,                                       !- Use Weather File Daylight Saving Period
  ,                                       !- Apply Weekend Holiday Rule
  ,                                       !- Use Weather File Rain Indicators
  ,                                       !- Use Weather File Snow Indicators
  ;                                       !- Number of Times Runperiod to be Repeated

OS:Building,
  {bf305633-c5a1-4881-9edf-ca5e1a8e1274}, !- Handle
  Building 1,                             !- Name
  ,                                       !- Building Sector Type
  ,                                       !- North Axis {deg}
  ,                                       !- Nominal Floor to Floor Height {m}
  ,                                       !- Space Type Name
  ,                                       !- Default Construction Set Name
  ,                                       !- Default Schedule Set Name
  ,                                       !- Standards Number of Stories
  ,                                       !- Standards Number of Above Ground Stories
  ,                                       !- Standards Building Type
  24;                                     !- Standards Number of Living Units

OS:LifeCycleCost:Parameters,
  {231cf8a0-f0e7-4251-a99f-11f0d464e661}, !- Handle
  FEMP,                                   !- Analysis Type
  ,                                       !- Discounting Convention
  ,                                       !- Inflation Approach
  ,                                       !- Real Discount Rate
  ,                                       !- Nominal Discount Rate
  ,                                       !- Inflation
  ,                                       !- Base Date Month
  ,                                       !- Base Date Year
  ,                                       !- Service Date Month
  ,                                       !- Service Date Year
  ,                                       !- Length of Study Period in Years
  ,                                       !- Tax Rate
  ,                                       !- Depreciation Method
  Yes;                                    !- Use NIST Fuel Escalation Rates

OS:Facility,
  {3ba8e45b-b833-44eb-a723-ea6c3946dc96}; !- Handle

OS:ThermalZone,
  {b0691fc5-55ff-4802-b822-774dae353120}, !- Handle
  living zone,                            !- Name
  ,                                       !- Multiplier
  ,                                       !- Ceiling Height {m}
  ,                                       !- Volume {m3}
  ,                                       !- Floor Area {m2}
  ,                                       !- Zone Inside Convection Algorithm
  ,                                       !- Zone Outside Convection Algorithm
  ,                                       !- Zone Conditioning Equipment List Name
  {f4e82eb7-fdf3-4a23-b66f-4f69e56d2a0b}, !- Zone Air Inlet Port List
  {d980061a-799a-4e09-8e04-b1fe91d8e0d0}, !- Zone Air Exhaust Port List
  {ef94380e-bb30-410d-b00c-2fdafe0a7813}, !- Zone Air Node Name
  ,                                       !- Zone Return Air Node Name
  ,                                       !- Primary Daylighting Control Name
  ,                                       !- Fraction of Zone Controlled by Primary Daylighting Control
  ,                                       !- Secondary Daylighting Control Name
  ,                                       !- Fraction of Zone Controlled by Secondary Daylighting Control
  ,                                       !- Illuminance Map Name
  ,                                       !- Group Rendering Name
  ,                                       !- Thermostat Name
  No;                                     !- Use Ideal Air Loads

OS:Node,
  {8deb2169-c64d-4bd3-8bf9-21fb9d274062}, !- Handle
  Node 1,                                 !- Name
  {ef94380e-bb30-410d-b00c-2fdafe0a7813}, !- Inlet Port
  ;                                       !- Outlet Port

OS:Connection,
  {ef94380e-bb30-410d-b00c-2fdafe0a7813}, !- Handle
  {31b1eeb3-c716-4708-8cd5-6f1a66aeb542}, !- Name
  {b0691fc5-55ff-4802-b822-774dae353120}, !- Source Object
  11,                                     !- Outlet Port
  {8deb2169-c64d-4bd3-8bf9-21fb9d274062}, !- Target Object
  2;                                      !- Inlet Port

OS:PortList,
  {f4e82eb7-fdf3-4a23-b66f-4f69e56d2a0b}, !- Handle
  Port List 1,                            !- Name
  {b0691fc5-55ff-4802-b822-774dae353120}; !- HVAC Component

OS:PortList,
  {d980061a-799a-4e09-8e04-b1fe91d8e0d0}, !- Handle
  Port List 2,                            !- Name
  {b0691fc5-55ff-4802-b822-774dae353120}; !- HVAC Component

OS:Sizing:Zone,
  {c2818dea-82cc-4cd9-a08d-ccc79a6a91e6}, !- Handle
  {b0691fc5-55ff-4802-b822-774dae353120}, !- Zone or ZoneList Name
  SupplyAirTemperature,                   !- Zone Cooling Design Supply Air Temperature Input Method
  14,                                     !- Zone Cooling Design Supply Air Temperature {C}
  11.11,                                  !- Zone Cooling Design Supply Air Temperature Difference {deltaC}
  SupplyAirTemperature,                   !- Zone Heating Design Supply Air Temperature Input Method
  40,                                     !- Zone Heating Design Supply Air Temperature {C}
  11.11,                                  !- Zone Heating Design Supply Air Temperature Difference {deltaC}
  0.0085,                                 !- Zone Cooling Design Supply Air Humidity Ratio {kg-H2O/kg-air}
  0.008,                                  !- Zone Heating Design Supply Air Humidity Ratio {kg-H2O/kg-air}
  ,                                       !- Zone Heating Sizing Factor
  ,                                       !- Zone Cooling Sizing Factor
  DesignDay,                              !- Cooling Design Air Flow Method
  ,                                       !- Cooling Design Air Flow Rate {m3/s}
  ,                                       !- Cooling Minimum Air Flow per Zone Floor Area {m3/s-m2}
  ,                                       !- Cooling Minimum Air Flow {m3/s}
  ,                                       !- Cooling Minimum Air Flow Fraction
  DesignDay,                              !- Heating Design Air Flow Method
  ,                                       !- Heating Design Air Flow Rate {m3/s}
  ,                                       !- Heating Maximum Air Flow per Zone Floor Area {m3/s-m2}
  ,                                       !- Heating Maximum Air Flow {m3/s}
  ,                                       !- Heating Maximum Air Flow Fraction
  ,                                       !- Design Zone Air Distribution Effectiveness in Cooling Mode
  ,                                       !- Design Zone Air Distribution Effectiveness in Heating Mode
  No,                                     !- Account for Dedicated Outdoor Air System
  NeutralSupplyAir,                       !- Dedicated Outdoor Air System Control Strategy
  autosize,                               !- Dedicated Outdoor Air Low Setpoint Temperature for Design {C}
  autosize;                               !- Dedicated Outdoor Air High Setpoint Temperature for Design {C}

OS:ZoneHVAC:EquipmentList,
  {705c148a-dc05-4cd0-af8e-40c321737a4b}, !- Handle
  Zone HVAC Equipment List 1,             !- Name
  {b0691fc5-55ff-4802-b822-774dae353120}; !- Thermal Zone

OS:Space,
  {e84a9307-4ec3-45f1-8c72-e167036c564c}, !- Handle
  living space,                           !- Name
  ,                                       !- Space Type Name
  ,                                       !- Default Construction Set Name
  ,                                       !- Default Schedule Set Name
  ,                                       !- Direction of Relative North {deg}
  ,                                       !- X Origin {m}
  ,                                       !- Y Origin {m}
  ,                                       !- Z Origin {m}
  ,                                       !- Building Story Name
  {b0691fc5-55ff-4802-b822-774dae353120}; !- Thermal Zone Name

OS:Surface,
  {05342be7-0ad3-4cc1-bd9e-7b7df59d32f0}, !- Handle
  Surface 1,                              !- Name
  Floor,                                  !- Surface Type
  ,                                       !- Construction Name
  {e84a9307-4ec3-45f1-8c72-e167036c564c}, !- Space Name
  Ground,                                 !- Outside Boundary Condition
  ,                                       !- Outside Boundary Condition Object
  NoSun,                                  !- Sun Exposure
  NoWind,                                 !- Wind Exposure
  ,                                       !- View Factor to Ground
  ,                                       !- Number of Vertices
  0, -13.6310703908387, 0,                !- X,Y,Z Vertex 1 {m}
  0, 0, 0,                                !- X,Y,Z Vertex 2 {m}
  6.81553519541936, 0, 0,                 !- X,Y,Z Vertex 3 {m}
  6.81553519541936, -13.6310703908387, 0; !- X,Y,Z Vertex 4 {m}

OS:Surface,
  {6b2fed1c-0dfe-4084-9f3f-85a131a2a02c}, !- Handle
  Surface 2,                              !- Name
  Wall,                                   !- Surface Type
  ,                                       !- Construction Name
  {e84a9307-4ec3-45f1-8c72-e167036c564c}, !- Space Name
  Outdoors,                               !- Outside Boundary Condition
  ,                                       !- Outside Boundary Condition Object
  SunExposed,                             !- Sun Exposure
  WindExposed,                            !- Wind Exposure
  ,                                       !- View Factor to Ground
  ,                                       !- Number of Vertices
  0, 0, 2.4384,                           !- X,Y,Z Vertex 1 {m}
  0, 0, 0,                                !- X,Y,Z Vertex 2 {m}
  0, -13.6310703908387, 0,                !- X,Y,Z Vertex 3 {m}
  0, -13.6310703908387, 2.4384;           !- X,Y,Z Vertex 4 {m}

OS:Surface,
  {4d22e1c5-0bb0-475b-93f6-edf687035fe6}, !- Handle
  Surface 3,                              !- Name
  Wall,                                   !- Surface Type
  ,                                       !- Construction Name
  {e84a9307-4ec3-45f1-8c72-e167036c564c}, !- Space Name
  Surface,                                !- Outside Boundary Condition
  {ba92c436-86ca-412a-af55-a80d9f7de795}, !- Outside Boundary Condition Object
  NoSun,                                  !- Sun Exposure
  NoWind,                                 !- Wind Exposure
  ,                                       !- View Factor to Ground
  ,                                       !- Number of Vertices
  6.81553519541936, 0, 2.4384,            !- X,Y,Z Vertex 1 {m}
  6.81553519541936, 0, 0,                 !- X,Y,Z Vertex 2 {m}
  0, 0, 0,                                !- X,Y,Z Vertex 3 {m}
  0, 0, 2.4384;                           !- X,Y,Z Vertex 4 {m}

OS:Surface,
  {e1d8645d-0eee-4977-a16c-cf151d56ef6b}, !- Handle
  Surface 4,                              !- Name
  Wall,                                   !- Surface Type
  ,                                       !- Construction Name
  {e84a9307-4ec3-45f1-8c72-e167036c564c}, !- Space Name
  Surface,                                !- Outside Boundary Condition
  {5f158252-778d-4252-beb7-9494bde61219}, !- Outside Boundary Condition Object
  NoSun,                                  !- Sun Exposure
  NoWind,                                 !- Wind Exposure
  ,                                       !- View Factor to Ground
  ,                                       !- Number of Vertices
  6.81553519541936, -13.6310703908387, 2.4384, !- X,Y,Z Vertex 1 {m}
  6.81553519541936, -13.6310703908387, 0, !- X,Y,Z Vertex 2 {m}
  6.81553519541936, 0, 0,                 !- X,Y,Z Vertex 3 {m}
  6.81553519541936, 0, 2.4384;            !- X,Y,Z Vertex 4 {m}

OS:Surface,
  {a34c8251-653e-47ff-98fd-449ea5ff9934}, !- Handle
  Surface 5,                              !- Name
  Wall,                                   !- Surface Type
  ,                                       !- Construction Name
  {e84a9307-4ec3-45f1-8c72-e167036c564c}, !- Space Name
  Outdoors,                               !- Outside Boundary Condition
  ,                                       !- Outside Boundary Condition Object
  SunExposed,                             !- Sun Exposure
  WindExposed,                            !- Wind Exposure
  ,                                       !- View Factor to Ground
  ,                                       !- Number of Vertices
  0, -13.6310703908387, 2.4384,           !- X,Y,Z Vertex 1 {m}
  0, -13.6310703908387, 0,                !- X,Y,Z Vertex 2 {m}
  6.81553519541936, -13.6310703908387, 0, !- X,Y,Z Vertex 3 {m}
  6.81553519541936, -13.6310703908387, 2.4384; !- X,Y,Z Vertex 4 {m}

OS:Surface,
  {6a91a8c6-1b2f-4b29-99b5-7b21bc873f17}, !- Handle
  Surface 6,                              !- Name
  RoofCeiling,                            !- Surface Type
  ,                                       !- Construction Name
  {e84a9307-4ec3-45f1-8c72-e167036c564c}, !- Space Name
  Surface,                                !- Outside Boundary Condition
  {de037f47-36d9-4ebb-9aaa-ba313f2cedac}, !- Outside Boundary Condition Object
  NoSun,                                  !- Sun Exposure
  NoWind,                                 !- Wind Exposure
  ,                                       !- View Factor to Ground
  ,                                       !- Number of Vertices
  6.81553519541936, -13.6310703908387, 2.4384, !- X,Y,Z Vertex 1 {m}
  6.81553519541936, 0, 2.4384,            !- X,Y,Z Vertex 2 {m}
  0, 0, 2.4384,                           !- X,Y,Z Vertex 3 {m}
  0, -13.6310703908387, 2.4384;           !- X,Y,Z Vertex 4 {m}

OS:ElectricEquipment:Definition,
  {03604b76-dabb-46a4-b481-4e4778db2ca9}, !- Handle
  unit=1|bed=nil|bath=nil|space={e84a9307-4ec3-45f1-8c72-e167036c564c}, !- Name
  EquipmentLevel,                         !- Design Level Calculation Method
  0,                                      !- Design Level {W}
  ,                                       !- Watts per Space Floor Area {W/m2}
  ;                                       !- Watts per Person {W/person}

OS:Schedule:Ruleset,
  {83cc81d0-37de-4f5d-8696-83b7e4bff812}, !- Handle
  empty_schedule,                         !- Name
  {6dfb4df5-9da0-464f-8106-c5ca8b04c7a1}, !- Schedule Type Limits Name
  {316efa2d-cef6-453f-8f9c-735ff29ba4a1}; !- Default Day Schedule Name

OS:Schedule:Day,
  {316efa2d-cef6-453f-8f9c-735ff29ba4a1}, !- Handle
  Schedule Day 1,                         !- Name
  {6dfb4df5-9da0-464f-8106-c5ca8b04c7a1}, !- Schedule Type Limits Name
  ,                                       !- Interpolate to Timestep
  24,                                     !- Hour 1
  0,                                      !- Minute 1
  0;                                      !- Value Until Time 1

OS:ElectricEquipment,
  {970759b1-1604-4984-8e55-75b35d65a7c9}, !- Handle
  unit=1|bed=nil|bath=nil|space={e84a9307-4ec3-45f1-8c72-e167036c564c}, !- Name
  {03604b76-dabb-46a4-b481-4e4778db2ca9}, !- Electric Equipment Definition Name
  ,                                       !- Space or SpaceType Name
  {83cc81d0-37de-4f5d-8696-83b7e4bff812}; !- Schedule Name

OS:ScheduleTypeLimits,
  {6dfb4df5-9da0-464f-8106-c5ca8b04c7a1}, !- Handle
  Fractional,                             !- Name
  0,                                      !- Lower Limit Value
  1,                                      !- Upper Limit Value
  Continuous;                             !- Numeric Type

OS:ThermalZone,
  {ff62b3a9-aac1-4399-a968-e4241924ba21}, !- Handle
  corridor zone,                          !- Name
  ,                                       !- Multiplier
  ,                                       !- Ceiling Height {m}
  ,                                       !- Volume {m3}
  ,                                       !- Floor Area {m2}
  ,                                       !- Zone Inside Convection Algorithm
  ,                                       !- Zone Outside Convection Algorithm
  ,                                       !- Zone Conditioning Equipment List Name
  {63ccb620-c25f-4200-824d-be7919a8e81c}, !- Zone Air Inlet Port List
  {dc3b4939-ead0-47c6-91be-c92f91e841f4}, !- Zone Air Exhaust Port List
  {410a37ac-e0bc-4897-a987-bda93c553882}, !- Zone Air Node Name
  ,                                       !- Zone Return Air Node Name
  ,                                       !- Primary Daylighting Control Name
  ,                                       !- Fraction of Zone Controlled by Primary Daylighting Control
  ,                                       !- Secondary Daylighting Control Name
  ,                                       !- Fraction of Zone Controlled by Secondary Daylighting Control
  ,                                       !- Illuminance Map Name
  ,                                       !- Group Rendering Name
  ,                                       !- Thermostat Name
  No;                                     !- Use Ideal Air Loads

OS:Node,
  {94ac3ad1-4d63-46a3-8354-ed3b66411c73}, !- Handle
  Node 2,                                 !- Name
  {410a37ac-e0bc-4897-a987-bda93c553882}, !- Inlet Port
  ;                                       !- Outlet Port

OS:Connection,
  {410a37ac-e0bc-4897-a987-bda93c553882}, !- Handle
  {6d6a1e38-9287-4b4a-a836-379f8566712d}, !- Name
  {ff62b3a9-aac1-4399-a968-e4241924ba21}, !- Source Object
  11,                                     !- Outlet Port
  {94ac3ad1-4d63-46a3-8354-ed3b66411c73}, !- Target Object
  2;                                      !- Inlet Port

OS:PortList,
  {63ccb620-c25f-4200-824d-be7919a8e81c}, !- Handle
  Port List 3,                            !- Name
  {ff62b3a9-aac1-4399-a968-e4241924ba21}; !- HVAC Component

OS:PortList,
  {dc3b4939-ead0-47c6-91be-c92f91e841f4}, !- Handle
  Port List 4,                            !- Name
  {ff62b3a9-aac1-4399-a968-e4241924ba21}; !- HVAC Component

OS:Sizing:Zone,
  {34d6d33c-24fc-429a-8ff3-58715b2cf4b1}, !- Handle
  {ff62b3a9-aac1-4399-a968-e4241924ba21}, !- Zone or ZoneList Name
  SupplyAirTemperature,                   !- Zone Cooling Design Supply Air Temperature Input Method
  14,                                     !- Zone Cooling Design Supply Air Temperature {C}
  11.11,                                  !- Zone Cooling Design Supply Air Temperature Difference {deltaC}
  SupplyAirTemperature,                   !- Zone Heating Design Supply Air Temperature Input Method
  40,                                     !- Zone Heating Design Supply Air Temperature {C}
  11.11,                                  !- Zone Heating Design Supply Air Temperature Difference {deltaC}
  0.0085,                                 !- Zone Cooling Design Supply Air Humidity Ratio {kg-H2O/kg-air}
  0.008,                                  !- Zone Heating Design Supply Air Humidity Ratio {kg-H2O/kg-air}
  ,                                       !- Zone Heating Sizing Factor
  ,                                       !- Zone Cooling Sizing Factor
  DesignDay,                              !- Cooling Design Air Flow Method
  ,                                       !- Cooling Design Air Flow Rate {m3/s}
  ,                                       !- Cooling Minimum Air Flow per Zone Floor Area {m3/s-m2}
  ,                                       !- Cooling Minimum Air Flow {m3/s}
  ,                                       !- Cooling Minimum Air Flow Fraction
  DesignDay,                              !- Heating Design Air Flow Method
  ,                                       !- Heating Design Air Flow Rate {m3/s}
  ,                                       !- Heating Maximum Air Flow per Zone Floor Area {m3/s-m2}
  ,                                       !- Heating Maximum Air Flow {m3/s}
  ,                                       !- Heating Maximum Air Flow Fraction
  ,                                       !- Design Zone Air Distribution Effectiveness in Cooling Mode
  ,                                       !- Design Zone Air Distribution Effectiveness in Heating Mode
  No,                                     !- Account for Dedicated Outdoor Air System
  NeutralSupplyAir,                       !- Dedicated Outdoor Air System Control Strategy
  autosize,                               !- Dedicated Outdoor Air Low Setpoint Temperature for Design {C}
  autosize;                               !- Dedicated Outdoor Air High Setpoint Temperature for Design {C}

OS:ZoneHVAC:EquipmentList,
  {b9a1dd9b-41b0-4c38-a801-b75b76986435}, !- Handle
  Zone HVAC Equipment List 2,             !- Name
  {ff62b3a9-aac1-4399-a968-e4241924ba21}; !- Thermal Zone

OS:Space,
  {da560a07-b34b-4da0-8698-973597645a80}, !- Handle
  corridor space,                         !- Name
  ,                                       !- Space Type Name
  ,                                       !- Default Construction Set Name
  ,                                       !- Default Schedule Set Name
  ,                                       !- Direction of Relative North {deg}
  ,                                       !- X Origin {m}
  ,                                       !- Y Origin {m}
  ,                                       !- Z Origin {m}
  ,                                       !- Building Story Name
  {ff62b3a9-aac1-4399-a968-e4241924ba21}; !- Thermal Zone Name

OS:Surface,
  {0273e265-da6a-41e6-9165-5a7c39476f06}, !- Handle
  Surface 7,                              !- Name
  Floor,                                  !- Surface Type
  ,                                       !- Construction Name
  {da560a07-b34b-4da0-8698-973597645a80}, !- Space Name
  Ground,                                 !- Outside Boundary Condition
  ,                                       !- Outside Boundary Condition Object
  NoSun,                                  !- Sun Exposure
  NoWind,                                 !- Wind Exposure
  ,                                       !- View Factor to Ground
  ,                                       !- Number of Vertices
  0, 0, 0,                                !- X,Y,Z Vertex 1 {m}
  0, 1.2192, 0,                           !- X,Y,Z Vertex 2 {m}
  27.2621407816774, 1.2192, 0,            !- X,Y,Z Vertex 3 {m}
  27.2621407816774, 0, 0;                 !- X,Y,Z Vertex 4 {m}

OS:Surface,
  {8a5c8d0f-e032-4c34-bbfa-ee26ecbd161a}, !- Handle
  Surface 8,                              !- Name
  Wall,                                   !- Surface Type
  ,                                       !- Construction Name
  {da560a07-b34b-4da0-8698-973597645a80}, !- Space Name
  Outdoors,                               !- Outside Boundary Condition
  ,                                       !- Outside Boundary Condition Object
  SunExposed,                             !- Sun Exposure
  WindExposed,                            !- Wind Exposure
  ,                                       !- View Factor to Ground
  ,                                       !- Number of Vertices
  0, 1.2192, 2.4384,                      !- X,Y,Z Vertex 1 {m}
  0, 1.2192, 0,                           !- X,Y,Z Vertex 2 {m}
  0, 0, 0,                                !- X,Y,Z Vertex 3 {m}
  0, 0, 2.4384;                           !- X,Y,Z Vertex 4 {m}

OS:Surface,
  {9ad2bf66-4925-4adb-881f-53cbf48d51d0}, !- Handle
  Surface 9,                              !- Name
  Wall,                                   !- Surface Type
  ,                                       !- Construction Name
  {da560a07-b34b-4da0-8698-973597645a80}, !- Space Name
  Surface,                                !- Outside Boundary Condition
  {9a0184a7-8d53-4d01-bee2-50c1ddfad815}, !- Outside Boundary Condition Object
  NoSun,                                  !- Sun Exposure
  NoWind,                                 !- Wind Exposure
  ,                                       !- View Factor to Ground
  ,                                       !- Number of Vertices
  20.4466055862581, 1.2192, 2.4384,       !- X,Y,Z Vertex 1 {m}
  20.4466055862581, 1.2192, 0,            !- X,Y,Z Vertex 2 {m}
  13.6310703908387, 1.2192, 0,            !- X,Y,Z Vertex 3 {m}
  13.6310703908387, 1.2192, 2.4384;       !- X,Y,Z Vertex 4 {m}

OS:Surface,
  {1fa004e4-57c7-4aaa-827c-bb0ef25248d4}, !- Handle
  Surface 10,                             !- Name
  Wall,                                   !- Surface Type
  ,                                       !- Construction Name
  {da560a07-b34b-4da0-8698-973597645a80}, !- Space Name
  Outdoors,                               !- Outside Boundary Condition
  ,                                       !- Outside Boundary Condition Object
  SunExposed,                             !- Sun Exposure
  WindExposed,                            !- Wind Exposure