
OS:Version,
  {814ef717-c859-48ed-bf3e-c19f01fc4af6}, !- Handle
  1.3.1;                                  !- Version Identifier

OS:Construction,
  {f1e7ba55-c68f-4d71-ab90-a6ba587d65e2}, !- Handle
  GrndUninsUnfinCSFloor,                  !- Name
  ,                                       !- Surface Rendering Name
  {06a8642c-d222-4a0d-8bd6-6f15b0942b92}, !- Layer 1
  {bee0b308-d369-4689-8583-69744e428630}; !- Layer 2

OS:Material,
  {bee0b308-d369-4689-8583-69744e428630}, !- Handle
  Soil_12in,                              !- Name
  Rough,                                  !- Roughness
  0.3048,                                 !- Thickness {m}
  1.731,                                  !- Conductivity {W/m-K}
  1842.3,                                 !- Density {kg/m3}
  418.7;                                  !- Specific Heat {J/kg-K}

OS:Material:NoMass,
  {06a8642c-d222-4a0d-8bd6-6f15b0942b92}, !- Handle
  CFloor_FicR_Wall_R_21_Fiberglass_Batt,  !- Name
  Rough,                                  !- Roughness
  4.50026955457134;                       !- Thermal Resistance {m2-K/W}

