!- NOTE: Auto-generated from /test/osw_files/SFA_4units_1story_FB_UA_3Beds_2Baths_Denver_ElecWHTank.osw

OS:Version,
  {78796186-885a-49c0-9de3-2717c7b411cd}, !- Handle
  2.1.0;                                  !- Version Identifier

OS:Building,
  {bf305633-c5a1-4881-9edf-ca5e1a8e1274}, !- Handle
  Building,                               !- Name
  ,                                       !- Building Sector Type
  ,                                       !- North Axis {deg}
  ,                                       !- Nominal Floor to Floor Height {m}
  ,                                       !- Space Type Name
  ,                                       !- Default Construction Set Name
  ,                                       !- Default Schedule Set Name
  2,                                      !- Standards Number of Stories
  1,                                      !- Standards Number of Above Ground Stories
  singlefamilyttached,                    !- Standards Building Type
  4;                                      !- Standards Number of Living Units

OS:YearDescription,
  {513d8dda-86cb-442a-b01c-1f7f0e0ac70e}; !- Handle

OS:SimulationControl,
  {2c487a4c-bac9-4ac5-b669-1e49d9da7c2b}, !- Handle
  ,                                       !- Do Zone Sizing Calculation
  ,                                       !- Do System Sizing Calculation
  ,                                       !- Do Plant Sizing Calculation
  No,                                     !- Run Simulation for Sizing Periods
  ;                                       !- Run Simulation for Weather File Run Periods

OS:Timestep,
  {4ebc9f1e-4707-402e-9844-67eb1ffbd522}, !- Handle
  6;                                      !- Number of Timesteps per Hour

OS:RunPeriod,
  {28df894d-6af9-4fb8-8f56-df1753344aa3}, !- Handle
  Run Period,                             !- Name
  1,                                      !- Begin Month
  1,                                      !- Begin Day of Month
  12,                                     !- End Month
  31,                                     !- End Day of Month
  ,                                       !- Use Weather File Holidays and Special Days
  ,                                       !- Use Weather File Daylight Saving Period
  ,                                       !- Apply Weekend Holiday Rule
  ,                                       !- Use Weather File Rain Indicators
  ,                                       !- Use Weather File Snow Indicators
  ;                                       !- Number of Times Runperiod to be Repeated

OS:Sizing:Parameters,
  {dde5af6f-7923-4600-a28a-7556673a0266}, !- Handle
  1.0,                                    !- Heating Sizing Factor
  1.0;                                    !- Cooling Sizing Factor

OS:ShadowCalculation,
  {ca758bea-4416-4626-9bba-3d8795c79bd6}, !- Handle
  20,                                     !- Calculation Frequency
  200;                                    !- Maximum Figures in Shadow Overlap Calculations

OS:SurfaceConvectionAlgorithm:Inside,
  {aaabfc36-718a-4ab0-b622-f186ebb45230}, !- Handle
  TARP;                                   !- Algorithm

OS:SurfaceConvectionAlgorithm:Outside,
  {9a0a9f6f-4bbd-4b12-a121-9492a1fcd7d6}, !- Handle
  DOE-2;                                  !- Algorithm

OS:HeatBalanceAlgorithm,
  {9d93e563-e1e0-46d7-9e39-d1c8aceb7212}, !- Handle
  ConductionTransferFunction,             !- Algorithm
  200;                                    !- Surface Temperature Upper Limit {C}

OS:ZoneCapacitanceMultiplier:ResearchSpecial,
  {6bfced16-b16f-47f6-8223-f7e267d75d19}, !- Handle
  ,                                       !- Temperature Capacity Multiplier
  15,                                     !- Humidity Capacity Multiplier
  ;                                       !- Carbon Dioxide Capacity Multiplier

OS:ThermalZone,
  {82797e48-960d-4d40-9b8d-21eece434e28}, !- Handle
  living zone,                            !- Name
  ,                                       !- Multiplier
  ,                                       !- Ceiling Height {m}
  ,                                       !- Volume {m3}
  ,                                       !- Floor Area {m2}
  ,                                       !- Zone Inside Convection Algorithm
  ,                                       !- Zone Outside Convection Algorithm
  ,                                       !- Zone Conditioning Equipment List Name
  {71adb071-cbaa-4620-8de3-f7a637ba52c3}, !- Zone Air Inlet Port List
  {5b31d1fb-573a-440e-8eb8-dc2de882173a}, !- Zone Air Exhaust Port List
  {11e90433-9362-4199-8868-7c49674fc425}, !- Zone Air Node Name
  ,                                       !- Zone Return Air Node Name
  ,                                       !- Primary Daylighting Control Name
  ,                                       !- Fraction of Zone Controlled by Primary Daylighting Control
  ,                                       !- Secondary Daylighting Control Name
  ,                                       !- Fraction of Zone Controlled by Secondary Daylighting Control
  ,                                       !- Illuminance Map Name
  ,                                       !- Group Rendering Name
  ,                                       !- Thermostat Name
  No;                                     !- Use Ideal Air Loads

OS:Node,
  {9002b29b-14e2-45bb-bd93-a5d021057456}, !- Handle
  Node 1,                                 !- Name
  {11e90433-9362-4199-8868-7c49674fc425}, !- Inlet Port
  ;                                       !- Outlet Port

OS:Connection,
  {11e90433-9362-4199-8868-7c49674fc425}, !- Handle
  {77d369cb-6023-41aa-b396-743025caa054}, !- Name
  {82797e48-960d-4d40-9b8d-21eece434e28}, !- Source Object
  11,                                     !- Outlet Port
  {9002b29b-14e2-45bb-bd93-a5d021057456}, !- Target Object
  2;                                      !- Inlet Port

OS:PortList,
  {71adb071-cbaa-4620-8de3-f7a637ba52c3}, !- Handle
  Port List 1,                            !- Name
  {82797e48-960d-4d40-9b8d-21eece434e28}; !- HVAC Component

OS:PortList,
  {5b31d1fb-573a-440e-8eb8-dc2de882173a}, !- Handle
  Port List 2,                            !- Name
  {82797e48-960d-4d40-9b8d-21eece434e28}; !- HVAC Component

OS:Sizing:Zone,
  {ce5ac9b3-2918-47c9-8b02-06a10eaf62b8}, !- Handle
  {82797e48-960d-4d40-9b8d-21eece434e28}, !- Zone or ZoneList Name
  SupplyAirTemperature,                   !- Zone Cooling Design Supply Air Temperature Input Method
  14,                                     !- Zone Cooling Design Supply Air Temperature {C}
  11.11,                                  !- Zone Cooling Design Supply Air Temperature Difference {deltaC}
  SupplyAirTemperature,                   !- Zone Heating Design Supply Air Temperature Input Method
  40,                                     !- Zone Heating Design Supply Air Temperature {C}
  11.11,                                  !- Zone Heating Design Supply Air Temperature Difference {deltaC}
  0.0085,                                 !- Zone Cooling Design Supply Air Humidity Ratio {kg-H2O/kg-air}
  0.008,                                  !- Zone Heating Design Supply Air Humidity Ratio {kg-H2O/kg-air}
  ,                                       !- Zone Heating Sizing Factor
  ,                                       !- Zone Cooling Sizing Factor
  DesignDay,                              !- Cooling Design Air Flow Method
  ,                                       !- Cooling Design Air Flow Rate {m3/s}
  ,                                       !- Cooling Minimum Air Flow per Zone Floor Area {m3/s-m2}
  ,                                       !- Cooling Minimum Air Flow {m3/s}
  ,                                       !- Cooling Minimum Air Flow Fraction
  DesignDay,                              !- Heating Design Air Flow Method
  ,                                       !- Heating Design Air Flow Rate {m3/s}
  ,                                       !- Heating Maximum Air Flow per Zone Floor Area {m3/s-m2}
  ,                                       !- Heating Maximum Air Flow {m3/s}
  ,                                       !- Heating Maximum Air Flow Fraction
  ,                                       !- Design Zone Air Distribution Effectiveness in Cooling Mode
  ,                                       !- Design Zone Air Distribution Effectiveness in Heating Mode
  No,                                     !- Account for Dedicated Outdoor Air System
  NeutralSupplyAir,                       !- Dedicated Outdoor Air System Control Strategy
  autosize,                               !- Dedicated Outdoor Air Low Setpoint Temperature for Design {C}
  autosize;                               !- Dedicated Outdoor Air High Setpoint Temperature for Design {C}

OS:ZoneHVAC:EquipmentList,
  {cb637d28-28a6-4882-98bd-d18f5cbb2791}, !- Handle
  Zone HVAC Equipment List 1,             !- Name
  {82797e48-960d-4d40-9b8d-21eece434e28}; !- Thermal Zone

OS:Space,
  {aa1d13c5-2ea9-4bfb-8fdf-6ab87a539f26}, !- Handle
  living space,                           !- Name
  ,                                       !- Space Type Name
  ,                                       !- Default Construction Set Name
  ,                                       !- Default Schedule Set Name
  ,                                       !- Direction of Relative North {deg}
  ,                                       !- X Origin {m}
  ,                                       !- Y Origin {m}
  ,                                       !- Z Origin {m}
  ,                                       !- Building Story Name
  {82797e48-960d-4d40-9b8d-21eece434e28}, !- Thermal Zone Name
  ,                                       !- Part of Total Floor Area
  ,                                       !- Design Specification Outdoor Air Object Name
  {64290811-6f8a-4e52-b7b9-d693807b61df}; !- Building Unit Name

OS:Surface,
  {e28ec662-b688-43aa-b737-dcf54cdeeb1b}, !- Handle
  Surface 1,                              !- Name
  Floor,                                  !- Surface Type
  ,                                       !- Construction Name
  {aa1d13c5-2ea9-4bfb-8fdf-6ab87a539f26}, !- Space Name
  Surface,                                !- Outside Boundary Condition
  {5c4a7688-dac7-45e3-90d8-a0bc72c23c34}, !- Outside Boundary Condition Object
  NoSun,                                  !- Sun Exposure
  NoWind,                                 !- Wind Exposure
  ,                                       !- View Factor to Ground
  ,                                       !- Number of Vertices
  0, -9.144, 0,                           !- X,Y,Z Vertex 1 {m}
  0, 0, 0,                                !- X,Y,Z Vertex 2 {m}
  4.572, 0, 0,                            !- X,Y,Z Vertex 3 {m}
  4.572, -9.144, 0;                       !- X,Y,Z Vertex 4 {m}

OS:Surface,
  {ea652e23-a9b3-4d11-92df-f4da84844636}, !- Handle
  Surface 2,                              !- Name
  Wall,                                   !- Surface Type
  ,                                       !- Construction Name
  {aa1d13c5-2ea9-4bfb-8fdf-6ab87a539f26}, !- Space Name
  Outdoors,                               !- Outside Boundary Condition
  ,                                       !- Outside Boundary Condition Object
  SunExposed,                             !- Sun Exposure
  WindExposed,                            !- Wind Exposure
  ,                                       !- View Factor to Ground
  ,                                       !- Number of Vertices
  0, 0, 2.4384,                           !- X,Y,Z Vertex 1 {m}
  0, 0, 0,                                !- X,Y,Z Vertex 2 {m}
  0, -9.144, 0,                           !- X,Y,Z Vertex 3 {m}
  0, -9.144, 2.4384;                      !- X,Y,Z Vertex 4 {m}

OS:Surface,
  {f37e1db6-75d7-4980-ab93-09034ebdac9c}, !- Handle
  Surface 3,                              !- Name
  Wall,                                   !- Surface Type
  ,                                       !- Construction Name
  {aa1d13c5-2ea9-4bfb-8fdf-6ab87a539f26}, !- Space Name
  Outdoors,                               !- Outside Boundary Condition
  ,                                       !- Outside Boundary Condition Object
  SunExposed,                             !- Sun Exposure
  WindExposed,                            !- Wind Exposure
  ,                                       !- View Factor to Ground
  ,                                       !- Number of Vertices
  4.572, 0, 2.4384,                       !- X,Y,Z Vertex 1 {m}
  4.572, 0, 0,                            !- X,Y,Z Vertex 2 {m}
  0, 0, 0,                                !- X,Y,Z Vertex 3 {m}
  0, 0, 2.4384;                           !- X,Y,Z Vertex 4 {m}

OS:Surface,
  {acd578b4-0fbc-4b21-b348-d58dbb8a6db2}, !- Handle
  Surface 4,                              !- Name
  Wall,                                   !- Surface Type
  ,                                       !- Construction Name
  {aa1d13c5-2ea9-4bfb-8fdf-6ab87a539f26}, !- Space Name
  Surface,                                !- Outside Boundary Condition
  {2d9f5685-675e-4b1f-9666-fc4620ed790e}, !- Outside Boundary Condition Object
  NoSun,                                  !- Sun Exposure
  NoWind,                                 !- Wind Exposure
  ,                                       !- View Factor to Ground
  ,                                       !- Number of Vertices
  4.572, -9.144, 2.4384,                  !- X,Y,Z Vertex 1 {m}
  4.572, -9.144, 0,                       !- X,Y,Z Vertex 2 {m}
  4.572, 0, 0,                            !- X,Y,Z Vertex 3 {m}
  4.572, 0, 2.4384;                       !- X,Y,Z Vertex 4 {m}

OS:Surface,
  {80958ee2-8a13-4f5e-8b3a-97b7c476a3fa}, !- Handle
  Surface 5,                              !- Name
  Wall,                                   !- Surface Type
  ,                                       !- Construction Name
  {aa1d13c5-2ea9-4bfb-8fdf-6ab87a539f26}, !- Space Name
  Outdoors,                               !- Outside Boundary Condition
  ,                                       !- Outside Boundary Condition Object
  SunExposed,                             !- Sun Exposure
  WindExposed,                            !- Wind Exposure
  ,                                       !- View Factor to Ground
  ,                                       !- Number of Vertices
  0, -9.144, 2.4384,                      !- X,Y,Z Vertex 1 {m}
  0, -9.144, 0,                           !- X,Y,Z Vertex 2 {m}
  4.572, -9.144, 0,                       !- X,Y,Z Vertex 3 {m}
  4.572, -9.144, 2.4384;                  !- X,Y,Z Vertex 4 {m}

OS:Surface,
  {41c4c3af-87f7-4134-ab32-f0d9b787d592}, !- Handle
  Surface 6,                              !- Name
  RoofCeiling,                            !- Surface Type
  ,                                       !- Construction Name
  {aa1d13c5-2ea9-4bfb-8fdf-6ab87a539f26}, !- Space Name
  Surface,                                !- Outside Boundary Condition
  {96b10096-5e34-412e-b031-13ee37a8ef62}, !- Outside Boundary Condition Object
  NoSun,                                  !- Sun Exposure
  NoWind,                                 !- Wind Exposure
  ,                                       !- View Factor to Ground
  ,                                       !- Number of Vertices
  4.572, -9.144, 2.4384,                  !- X,Y,Z Vertex 1 {m}
  4.572, 0, 2.4384,                       !- X,Y,Z Vertex 2 {m}
  0, 0, 2.4384,                           !- X,Y,Z Vertex 3 {m}
  0, -9.144, 2.4384;                      !- X,Y,Z Vertex 4 {m}

OS:Surface,
  {96b10096-5e34-412e-b031-13ee37a8ef62}, !- Handle
  Surface 7,                              !- Name
  Floor,                                  !- Surface Type
  ,                                       !- Construction Name
  {736124ae-b7e4-43ec-bf64-d48e99f9a3eb}, !- Space Name
  Surface,                                !- Outside Boundary Condition
  {41c4c3af-87f7-4134-ab32-f0d9b787d592}, !- Outside Boundary Condition Object
  NoSun,                                  !- Sun Exposure
  NoWind,                                 !- Wind Exposure
  ,                                       !- View Factor to Ground
  ,                                       !- Number of Vertices
  0, -9.144, 2.4384,                      !- X,Y,Z Vertex 1 {m}
  0, 0, 2.4384,                           !- X,Y,Z Vertex 2 {m}
  4.572, 0, 2.4384,                       !- X,Y,Z Vertex 3 {m}
  4.572, -9.144, 2.4384;                  !- X,Y,Z Vertex 4 {m}

OS:Surface,
  {27b86fca-e2a5-4e24-bb59-d5a16646088b}, !- Handle
  Surface 8,                              !- Name
  RoofCeiling,                            !- Surface Type
  ,                                       !- Construction Name
  {736124ae-b7e4-43ec-bf64-d48e99f9a3eb}, !- Space Name
  Outdoors,                               !- Outside Boundary Condition
  ,                                       !- Outside Boundary Condition Object
  SunExposed,                             !- Sun Exposure
  WindExposed,                            !- Wind Exposure
  ,                                       !- View Factor to Ground
  ,                                       !- Number of Vertices
  2.286, 0, 3.5814,                       !- X,Y,Z Vertex 1 {m}
  0, 0, 2.4384,                           !- X,Y,Z Vertex 2 {m}
  0, -9.144, 2.4384,                      !- X,Y,Z Vertex 3 {m}
  2.286, -9.144, 3.5814;                  !- X,Y,Z Vertex 4 {m}

OS:Surface,
  {92906992-1118-4dfd-815f-efb839ec1c2e}, !- Handle
  Surface 9,                              !- Name
  RoofCeiling,                            !- Surface Type
  ,                                       !- Construction Name
  {736124ae-b7e4-43ec-bf64-d48e99f9a3eb}, !- Space Name
  Outdoors,                               !- Outside Boundary Condition
  ,                                       !- Outside Boundary Condition Object
  SunExposed,                             !- Sun Exposure
  WindExposed,                            !- Wind Exposure
  ,                                       !- View Factor to Ground
  ,                                       !- Number of Vertices
  2.286, -9.144, 3.5814,                  !- X,Y,Z Vertex 1 {m}
  4.572, -9.144, 2.4384,                  !- X,Y,Z Vertex 2 {m}
  4.572, 0, 2.4384,                       !- X,Y,Z Vertex 3 {m}
  2.286, 0, 3.5814;                       !- X,Y,Z Vertex 4 {m}

OS:Surface,
  {ddfe4ba5-7eeb-48dd-865f-31eee6ddb697}, !- Handle
  Surface 10,                             !- Name
  Wall,                                   !- Surface Type
  ,                                       !- Construction Name
  {736124ae-b7e4-43ec-bf64-d48e99f9a3eb}, !- Space Name
  Outdoors,                               !- Outside Boundary Condition
  ,                                       !- Outside Boundary Condition Object
  SunExposed,                             !- Sun Exposure
  WindExposed,                            !- Wind Exposure
  ,                                       !- View Factor to Ground
  ,                                       !- Number of Vertices
  2.286, -9.144, 3.5814,                  !- X,Y,Z Vertex 1 {m}
  0, -9.144, 2.4384,                      !- X,Y,Z Vertex 2 {m}
  4.572, -9.144, 2.4384;                  !- X,Y,Z Vertex 3 {m}

OS:Surface,
  {f1152d80-4dc0-4447-9aee-daada29b75ad}, !- Handle
  Surface 11,                             !- Name
  Wall,                                   !- Surface Type
  ,                                       !- Construction Name
  {736124ae-b7e4-43ec-bf64-d48e99f9a3eb}, !- Space Name
  Outdoors,                               !- Outside Boundary Condition
  ,                                       !- Outside Boundary Condition Object
  SunExposed,                             !- Sun Exposure
  WindExposed,                            !- Wind Exposure
  ,                                       !- View Factor to Ground
  ,                                       !- Number of Vertices
  2.286, 0, 3.5814,                       !- X,Y,Z Vertex 1 {m}
  4.572, 0, 2.4384,                       !- X,Y,Z Vertex 2 {m}
  0, 0, 2.4384;                           !- X,Y,Z Vertex 3 {m}

OS:ThermalZone,
  {01307db6-87af-4aab-8b12-8ca7dc4a92b5}, !- Handle
  living zone|unit 2,                     !- Name
  ,                                       !- Multiplier
  ,                                       !- Ceiling Height {m}
  ,                                       !- Volume {m3}
  ,                                       !- Floor Area {m2}
  ,                                       !- Zone Inside Convection Algorithm
  ,                                       !- Zone Outside Convection Algorithm
  ,                                       !- Zone Conditioning Equipment List Name
  {32b976c5-7270-45ab-8fa9-9fc0f5a4da9c}, !- Zone Air Inlet Port List
  {49ef3d5f-3d7e-4a3b-8ba2-85325b32b0f7}, !- Zone Air Exhaust Port List
  {cd3d8ea9-9c36-450c-8d64-61b8032571da}, !- Zone Air Node Name
  ,                                       !- Zone Return Air Node Name
  ,                                       !- Primary Daylighting Control Name
  ,                                       !- Fraction of Zone Controlled by Primary Daylighting Control
  ,                                       !- Secondary Daylighting Control Name
  ,                                       !- Fraction of Zone Controlled by Secondary Daylighting Control
  ,                                       !- Illuminance Map Name
  ,                                       !- Group Rendering Name
  ,                                       !- Thermostat Name
  No;                                     !- Use Ideal Air Loads

OS:Node,
  {29f5687c-e6ed-47fe-abc7-670a385bd0cd}, !- Handle
  Node 2,                                 !- Name
  {cd3d8ea9-9c36-450c-8d64-61b8032571da}, !- Inlet Port
  ;                                       !- Outlet Port

OS:Connection,
  {cd3d8ea9-9c36-450c-8d64-61b8032571da}, !- Handle
  {ac978067-b716-429c-9526-d67861e05ac4}, !- Name
  {01307db6-87af-4aab-8b12-8ca7dc4a92b5}, !- Source Object
  11,                                     !- Outlet Port
  {29f5687c-e6ed-47fe-abc7-670a385bd0cd}, !- Target Object
  2;                                      !- Inlet Port

OS:PortList,
  {32b976c5-7270-45ab-8fa9-9fc0f5a4da9c}, !- Handle
  Port List 3,                            !- Name
  {01307db6-87af-4aab-8b12-8ca7dc4a92b5}; !- HVAC Component

OS:PortList,
  {49ef3d5f-3d7e-4a3b-8ba2-85325b32b0f7}, !- Handle
  Port List 4,                            !- Name
  {01307db6-87af-4aab-8b12-8ca7dc4a92b5}; !- HVAC Component

OS:Sizing:Zone,
  {d094d7ba-d424-4df1-b25a-90513f511919}, !- Handle
  {01307db6-87af-4aab-8b12-8ca7dc4a92b5}, !- Zone or ZoneList Name
  SupplyAirTemperature,                   !- Zone Cooling Design Supply Air Temperature Input Method
  14,                                     !- Zone Cooling Design Supply Air Temperature {C}
  11.11,                                  !- Zone Cooling Design Supply Air Temperature Difference {deltaC}
  SupplyAirTemperature,                   !- Zone Heating Design Supply Air Temperature Input Method
  40,                                     !- Zone Heating Design Supply Air Temperature {C}
  11.11,                                  !- Zone Heating Design Supply Air Temperature Difference {deltaC}
  0.0085,                                 !- Zone Cooling Design Supply Air Humidity Ratio {kg-H2O/kg-air}
  0.008,                                  !- Zone Heating Design Supply Air Humidity Ratio {kg-H2O/kg-air}
  ,                                       !- Zone Heating Sizing Factor
  ,                                       !- Zone Cooling Sizing Factor
  DesignDay,                              !- Cooling Design Air Flow Method
  ,                                       !- Cooling Design Air Flow Rate {m3/s}
  ,                                       !- Cooling Minimum Air Flow per Zone Floor Area {m3/s-m2}
  ,                                       !- Cooling Minimum Air Flow {m3/s}
  ,                                       !- Cooling Minimum Air Flow Fraction
  DesignDay,                              !- Heating Design Air Flow Method
  ,                                       !- Heating Design Air Flow Rate {m3/s}
  ,                                       !- Heating Maximum Air Flow per Zone Floor Area {m3/s-m2}
  ,                                       !- Heating Maximum Air Flow {m3/s}
  ,                                       !- Heating Maximum Air Flow Fraction
  ,                                       !- Design Zone Air Distribution Effectiveness in Cooling Mode
  ,                                       !- Design Zone Air Distribution Effectiveness in Heating Mode
  No,                                     !- Account for Dedicated Outdoor Air System
  NeutralSupplyAir,                       !- Dedicated Outdoor Air System Control Strategy
  autosize,                               !- Dedicated Outdoor Air Low Setpoint Temperature for Design {C}
  autosize;                               !- Dedicated Outdoor Air High Setpoint Temperature for Design {C}

OS:ZoneHVAC:EquipmentList,
  {60c389f0-5e23-4d0d-901b-e828071e7a5e}, !- Handle
  Zone HVAC Equipment List 2,             !- Name
  {01307db6-87af-4aab-8b12-8ca7dc4a92b5}; !- Thermal Zone

OS:Space,
  {374a48cb-8cd0-41ab-b818-ea85a808b906}, !- Handle
  living space|unit 2,                    !- Name
  ,                                       !- Space Type Name
  ,                                       !- Default Construction Set Name
  ,                                       !- Default Schedule Set Name
  -0,                                     !- Direction of Relative North {deg}
  0,                                      !- X Origin {m}
  0,                                      !- Y Origin {m}
  0,                                      !- Z Origin {m}
  ,                                       !- Building Story Name
  {01307db6-87af-4aab-8b12-8ca7dc4a92b5}, !- Thermal Zone Name
  ,                                       !- Part of Total Floor Area
  ,                                       !- Design Specification Outdoor Air Object Name
  {cf4fa1a8-a2bf-4a8a-869b-d63d2d9ccd95}; !- Building Unit Name

OS:Surface,
  {fff615a2-cabe-4731-9b53-09e3a84554a9}, !- Handle
  Surface 12,                             !- Name
  Floor,                                  !- Surface Type
  ,                                       !- Construction Name
  {374a48cb-8cd0-41ab-b818-ea85a808b906}, !- Space Name
  Surface,                                !- Outside Boundary Condition
  {481645d7-01f2-4714-bf23-4231a51cfca3}, !- Outside Boundary Condition Object
  NoSun,                                  !- Sun Exposure
  NoWind,                                 !- Wind Exposure
  ,                                       !- View Factor to Ground
  ,                                       !- Number of Vertices
  4.572, -9.144, 0,                       !- X,Y,Z Vertex 1 {m}
  4.572, 0, 0,                            !- X,Y,Z Vertex 2 {m}
  9.144, 0, 0,                            !- X,Y,Z Vertex 3 {m}
  9.144, -9.144, 0;                       !- X,Y,Z Vertex 4 {m}

OS:Surface,
  {2d9f5685-675e-4b1f-9666-fc4620ed790e}, !- Handle
  Surface 13,                             !- Name
  Wall,                                   !- Surface Type
  ,                                       !- Construction Name
  {374a48cb-8cd0-41ab-b818-ea85a808b906}, !- Space Name
  Surface,                                !- Outside Boundary Condition
  {acd578b4-0fbc-4b21-b348-d58dbb8a6db2}, !- Outside Boundary Condition Object
  NoSun,                                  !- Sun Exposure
  NoWind,                                 !- Wind Exposure
  ,                                       !- View Factor to Ground
  ,                                       !- Number of Vertices
  4.572, 0, 2.4384,                       !- X,Y,Z Vertex 1 {m}
  4.572, 0, 0,                            !- X,Y,Z Vertex 2 {m}
  4.572, -9.144, 0,                       !- X,Y,Z Vertex 3 {m}
  4.572, -9.144, 2.4384;                  !- X,Y,Z Vertex 4 {m}

OS:Surface,
  {6ef6bee6-46e4-4d4f-907d-70210680dec7}, !- Handle
  Surface 14,                             !- Name
  Wall,                                   !- Surface Type
  ,                                       !- Construction Name
  {374a48cb-8cd0-41ab-b818-ea85a808b906}, !- Space Name
  Outdoors,                               !- Outside Boundary Condition
  ,                                       !- Outside Boundary Condition Object
  SunExposed,                             !- Sun Exposure
  WindExposed,                            !- Wind Exposure
  ,                                       !- View Factor to Ground
  ,                                       !- Number of Vertices
  9.144, 0, 2.4384,                       !- X,Y,Z Vertex 1 {m}
  9.144, 0, 0,                            !- X,Y,Z Vertex 2 {m}
  4.572, 0, 0,                            !- X,Y,Z Vertex 3 {m}
  4.572, 0, 2.4384;                       !- X,Y,Z Vertex 4 {m}

OS:Surface,
  {d9fbd3f9-e30c-46a9-8fc7-4862b1b130de}, !- Handle
  Surface 15,                             !- Name
  Wall,                                   !- Surface Type
  ,                                       !- Construction Name
  {374a48cb-8cd0-41ab-b818-ea85a808b906}, !- Space Name
  Surface,                                !- Outside Boundary Condition
  {fb0e11c1-625f-4440-ae51-32cd8bf508e3}, !- Outside Boundary Condition Object
  NoSun,                                  !- Sun Exposure
  NoWind,                                 !- Wind Exposure
  ,                                       !- View Factor to Ground
  ,                                       !- Number of Vertices
  9.144, -9.144, 2.4384,                  !- X,Y,Z Vertex 1 {m}
  9.144, -9.144, 0,                       !- X,Y,Z Vertex 2 {m}