
OS:Version,
  {337da94a-577a-4509-b5d4-f65914c53e6d}, !- Handle
  1.3.1;                                  !- Version Identifier

OS:Construction,
  {7abcfb34-b1b3-456f-b5cb-6336f256ddf7}, !- Handle
  GrndUninsUnfinGrgFloor,                 !- Name
  ,                                       !- Surface Rendering Name
  {2af48185-166c-4cd9-ba06-4f6b2cf0be43}, !- Layer 1
  {557d0dca-72f5-465c-b033-7a402b372d2c}, !- Layer 2
  {063a19dd-198b-4d24-9dc2-1857bcb6c1da}; !- Layer 3

OS:Material:NoMass,
  {2af48185-166c-4cd9-ba06-4f6b2cf0be43}, !- Handle
  Adiabatic,                              !- Name
  Rough,                                  !- Roughness
  176.1;                                  !- Thermal Resistance {m2-K/W}

OS:Material,
  {557d0dca-72f5-465c-b033-7a402b372d2c}, !- Handle
  Soil_12in,                              !- Name
  Rough,                                  !- Roughness
  0.3048,                                 !- Thickness {m}
  1.731,                                  !- Conductivity {W/m-K}
  1842.3,                                 !- Density {kg/m3}
  418.7;                                  !- Specific Heat {J/kg-K}

OS:Material,
  {063a19dd-198b-4d24-9dc2-1857bcb6c1da}, !- Handle
  Concrete_4in,                           !- Name
  Rough,                                  !- Roughness
  0.1016,                                 !- Thickness {m}
  1.3114056,                              !- Conductivity {W/m-K}
  2242.79999999999,                       !- Density {kg/m3}
  837.4;                                  !- Specific Heat {J/kg-K}

