
OS:Version,
  {af0e3e9b-ac95-4126-ae41-39b0c3e6e281}, !- Handle
  1.3.1;                                  !- Version Identifier

OS:Construction,
  {a96101fd-158b-450e-82ac-a5c168261314}, !- Handle
  ExtInsFinWall,                          !- Name
  ,                                       !- Surface Rendering Name
  {e41e0785-db42-4b13-8139-686b3a666b24}, !- Layer 1
  {67064365-b733-4909-a9ac-450593921975}, !- Layer 2
  {90602426-0ec8-420b-a8e4-39a92df84cb2}, !- Layer 3
  {e73d36cb-be13-4305-9b2b-5326fd744880}; !- Layer 4

OS:Material,
  {e41e0785-db42-4b13-8139-686b3a666b24}, !- Handle
  Exterior_Finish_Vinyl_Light,            !- Name
  Rough,                                  !- Roughness
  0.009525,                               !- Thickness {m}
  0.089435,                               !- Conductivity {W/m-K}
  177.822,                                !- Density {kg/m3}
  1046.75,                                !- Specific Heat {J/kg-K}
  0.9,                                    !- Thermal Absorptance
  0.3,                                    !- Solar Absorptance
  0.3;                                    !- Visible Absorptance

OS:Material,
  {67064365-b733-4909-a9ac-450593921975}, !- Handle
  Plywood_1_2in,                          !- Name
  Rough,                                  !- Roughness
  0.0127,                                 !- Thickness {m}
  0.1154577,                              !- Conductivity {W/m-K}
  512.64,                                 !- Density {kg/m3}
  1214.23;                                !- Specific Heat {J/kg-K}

OS:Material,
  {e73d36cb-be13-4305-9b2b-5326fd744880}, !- Handle
  GypsumBoard_1_2in,                      !- Name
  Rough,                                  !- Roughness
  0.0127,                                 !- Thickness {m}
  0.1602906,                              !- Conductivity {W/m-K}
  801,                                    !- Density {kg/m3}
  837.4;                                  !- Specific Heat {J/kg-K}

OS:Material,
  {90602426-0ec8-420b-a8e4-39a92df84cb2}, !- Handle
  StudandCavity,                          !- Name
  Rough,                                  !- Roughness
  0.1397,                                 !- Thickness {m}
  0.0523355213861919,                     !- Conductivity {W/m-K}
  148.39326,                              !- Density {kg/m3}
  1174.03696966425;                       !- Specific Heat {J/kg-K}

