
OS:Version,
  {b09d5396-f995-4656-a9be-9aca690711bd}, !- Handle
  1.3.1;                                  !- Version Identifier

OS:ElectricEquipment:Definition,
  {67c7a818-06e2-4654-9558-2223395e77d9}, !- Handle
  25 cu ft. EF = 20.6 side freezer DR control, !- Name
  EquipmentLevel,                         !- Design Level Calculation Method
  82.036052280541,                        !- Design Level {W}
  ,                                       !- Watts per Space Floor Area {W/m2}
  ,                                       !- Watts per Person {W/person}
  0,                                      !- Fraction Latent
  0,                                      !- Fraction Radiant
  0;                                      !- Fraction Lost

OS:Schedule:Ruleset,
  {e42560dc-2171-4c66-b9e6-3262feee7ef0}, !- Handle
  refrigerator_ruleset,                   !- Name
  ,                                       !- Schedule Type Limits Name
  {7dabb05c-48ab-49fd-b28d-f35eebacbe54}, !- Default Day Schedule Name
  {7fd52918-13ab-4fa4-ab85-46864c9fcb8a}, !- Summer Design Day Schedule Name
  {baff440c-b6f7-4828-b377-f001611eb895}; !- Winter Design Day Schedule Name

OS:Schedule:Day,
  {7dabb05c-48ab-49fd-b28d-f35eebacbe54}, !- Handle
  Schedule Day 1,                         !- Name
  ,                                       !- Schedule Type Limits Name
  ,                                       !- Interpolate to Timestep
  24,                                     !- Hour 1
  0,                                      !- Minute 1
  0;                                      !- Value Until Time 1

OS:Schedule:Rule,
  {0caf1a93-f083-480f-92df-be063e542a4a}, !- Handle
  fridge_weekday_ruleset1,                !- Name
  {e42560dc-2171-4c66-b9e6-3262feee7ef0}, !- Schedule Ruleset Name
  23,                                     !- Rule Order
  {f9f7836b-c4e0-4845-9200-0a5a5e3a530d}, !- Day Schedule Name
  No,                                     !- Apply Sunday
  Yes,                                    !- Apply Monday
  Yes,                                    !- Apply Tuesday
  Yes,                                    !- Apply Wednesday
  Yes,                                    !- Apply Thursday
  Yes,                                    !- Apply Friday
  No,                                     !- Apply Saturday
  ,                                       !- Apply Holiday
  DateRange,                              !- Date Specification Type
  1,                                      !- Start Month
  1,                                      !- Start Day
  1,                                      !- End Month
  31;                                     !- End Day

OS:Schedule:Day,
  {f9f7836b-c4e0-4845-9200-0a5a5e3a530d}, !- Handle
  RefrigeratorWinter,                     !- Name
  ,                                       !- Schedule Type Limits Name
  ,                                       !- Interpolate to Timestep
  1,                                      !- Hour 1
  0,                                      !- Minute 1
  0.610948905109489,                      !- Value Until Time 1
  2,                                      !- Hour 2
  0,                                      !- Minute 2
  0.595675182481752,                      !- Value Until Time 2
  3,                                      !- Hour 3
  0,                                      !- Minute 3
  0.580401459854014,                      !- Value Until Time 3
  4,                                      !- Hour 4
  0,                                      !- Minute 4
  0.565127737226277,                      !- Value Until Time 4
  5,                                      !- Hour 5
  0,                                      !- Minute 5
  0.54985401459854,                       !- Value Until Time 5
  6,                                      !- Hour 6
  0,                                      !- Minute 6
  0.54985401459854,                       !- Value Until Time 6
  7,                                      !- Hour 7
  0,                                      !- Minute 7
  0.580401459854014,                      !- Value Until Time 7
  8,                                      !- Hour 8
  0,                                      !- Minute 8
  0.610948905109489,                      !- Value Until Time 8
  9,                                      !- Hour 9
  0,                                      !- Minute 9
  0.626222627737226,                      !- Value Until Time 9
  10,                                     !- Hour 10
  0,                                      !- Minute 10
  0.626222627737226,                      !- Value Until Time 10
  11,                                     !- Hour 11
  0,                                      !- Minute 11
  0.610948905109489,                      !- Value Until Time 11
  12,                                     !- Hour 12
  0,                                      !- Minute 12
  0.610948905109489,                      !- Value Until Time 12
  13,                                     !- Hour 13
  0,                                      !- Minute 13
  0.641496350364963,                      !- Value Until Time 13
  14,                                     !- Hour 14
  0,                                      !- Minute 14
  0.641496350364963,                      !- Value Until Time 14
  15,                                     !- Hour 15
  0,                                      !- Minute 15
  0.641496350364963,                      !- Value Until Time 15
  16,                                     !- Hour 16
  0,                                      !- Minute 16
  0.626222627737226,                      !- Value Until Time 16
  17,                                     !- Hour 17
  0,                                      !- Minute 17
  0.672043795620438,                      !- Value Until Time 17
  18,                                     !- Hour 18
  0,                                      !- Minute 18
  0.733138686131387,                      !- Value Until Time 18
  19,                                     !- Hour 19
  0,                                      !- Minute 19
  0.763686131386861,                      !- Value Until Time 19
  20,                                     !- Hour 20
  0,                                      !- Minute 20
  0.733138686131387,                      !- Value Until Time 20
  21,                                     !- Hour 21
  0,                                      !- Minute 21
  0.717864963503649,                      !- Value Until Time 21
  22,                                     !- Hour 22
  0,                                      !- Minute 22
  0.702591240875912,                      !- Value Until Time 22
  23,                                     !- Hour 23
  0,                                      !- Minute 23
  0.672043795620438,                      !- Value Until Time 23
  24,                                     !- Hour 24
  0,                                      !- Minute 24
  0.626222627737226;                      !- Value Until Time 24

OS:Schedule:Rule,
  {55207e8d-3fa4-40b3-9669-a74b76841c90}, !- Handle
  fridge_weekend_ruleset1,                !- Name
  {e42560dc-2171-4c66-b9e6-3262feee7ef0}, !- Schedule Ruleset Name
  22,                                     !- Rule Order
  {2767453a-da3c-45a1-9076-991aee17704c}, !- Day Schedule Name
  Yes,                                    !- Apply Sunday
  No,                                     !- Apply Monday
  No,                                     !- Apply Tuesday
  No,                                     !- Apply Wednesday
  No,                                     !- Apply Thursday
  No,                                     !- Apply Friday
  Yes,                                    !- Apply Saturday
  ,                                       !- Apply Holiday
  DateRange,                              !- Date Specification Type
  1,                                      !- Start Month
  1,                                      !- Start Day
  1,                                      !- End Month
  31;                                     !- End Day

OS:Schedule:Day,
  {2767453a-da3c-45a1-9076-991aee17704c}, !- Handle
  RefrigeratorWeekend1,                   !- Name
  ,                                       !- Schedule Type Limits Name
  ,                                       !- Interpolate to Timestep
  1,                                      !- Hour 1
  0,                                      !- Minute 1
  0.610948905109489,                      !- Value Until Time 1
  2,                                      !- Hour 2
  0,                                      !- Minute 2
  0.595675182481752,                      !- Value Until Time 2
  3,                                      !- Hour 3
  0,                                      !- Minute 3
  0.580401459854014,                      !- Value Until Time 3
  4,                                      !- Hour 4
  0,                                      !- Minute 4
  0.565127737226277,                      !- Value Until Time 4
  5,                                      !- Hour 5
  0,                                      !- Minute 5
  0.54985401459854,                       !- Value Until Time 5
  6,                                      !- Hour 6
  0,                                      !- Minute 6
  0.54985401459854,                       !- Value Until Time 6
  7,                                      !- Hour 7
  0,                                      !- Minute 7
  0.580401459854014,                      !- Value Until Time 7
  8,                                      !- Hour 8
  0,                                      !- Minute 8
  0.610948905109489,                      !- Value Until Time 8
  9,                                      !- Hour 9
  0,                                      !- Minute 9
  0.626222627737226,                      !- Value Until Time 9
  10,                                     !- Hour 10
  0,                                      !- Minute 10
  0.626222627737226,                      !- Value Until Time 10
  11,                                     !- Hour 11
  0,                                      !- Minute 11
  0.610948905109489,                      !- Value Until Time 11
  12,                                     !- Hour 12
  0,                                      !- Minute 12
  0.610948905109489,                      !- Value Until Time 12
  13,                                     !- Hour 13
  0,                                      !- Minute 13
  0.641496350364963,                      !- Value Until Time 13
  14,                                     !- Hour 14
  0,                                      !- Minute 14
  0.641496350364963,                      !- Value Until Time 14
  15,                                     !- Hour 15
  0,                                      !- Minute 15
  0.641496350364963,                      !- Value Until Time 15
  16,                                     !- Hour 16
  0,                                      !- Minute 16
  0.626222627737226,                      !- Value Until Time 16
  17,                                     !- Hour 17
  0,                                      !- Minute 17
  0.672043795620438,                      !- Value Until Time 17
  18,                                     !- Hour 18
  0,                                      !- Minute 18
  0.733138686131387,                      !- Value Until Time 18
  19,                                     !- Hour 19
  0,                                      !- Minute 19
  0.763686131386861,                      !- Value Until Time 19
  20,                                     !- Hour 20
  0,                                      !- Minute 20
  0.733138686131387,                      !- Value Until Time 20
  21,                                     !- Hour 21
  0,                                      !- Minute 21
  0.717864963503649,                      !- Value Until Time 21
  22,                                     !- Hour 22
  0,                                      !- Minute 22
  0.702591240875912,                      !- Value Until Time 22
  23,                                     !- Hour 23
  0,                                      !- Minute 23
  0.672043795620438,                      !- Value Until Time 23
  24,                                     !- Hour 24
  0,                                      !- Minute 24
  0.626222627737226;                      !- Value Until Time 24

OS:Schedule:Rule,
  {e1bc0da7-0e7a-4ee5-a348-7cd4026ff6c0}, !- Handle
  fridge_weekday_ruleset2,                !- Name
  {e42560dc-2171-4c66-b9e6-3262feee7ef0}, !- Schedule Ruleset Name
  21,                                     !- Rule Order
  {bf43f5ba-1260-43de-bf7d-dd5e41116123}, !- Day Schedule Name
  No,                                     !- Apply Sunday
  Yes,                                    !- Apply Monday
  Yes,                                    !- Apply Tuesday
  Yes,                                    !- Apply Wednesday
  Yes,                                    !- Apply Thursday
  Yes,                                    !- Apply Friday
  No,                                     !- Apply Saturday
  ,                                       !- Apply Holiday
  DateRange,                              !- Date Specification Type
  2,                                      !- Start Month
  1,                                      !- Start Day
  2,                                      !- End Month
  28;                                     !- End Day

OS:Schedule:Day,
  {bf43f5ba-1260-43de-bf7d-dd5e41116123}, !- Handle
  RefrigeratorWeekday2,                   !- Name
  ,                                       !- Schedule Type Limits Name
  ,                                       !- Interpolate to Timestep
  1,                                      !- Hour 1
  0,                                      !- Minute 1
  0.60948905109489,                       !- Value Until Time 1
  2,                                      !- Hour 2
  0,                                      !- Minute 2
  0.594251824817518,                      !- Value Until Time 2
  3,                                      !- Hour 3
  0,                                      !- Minute 3
  0.579014598540146,                      !- Value Until Time 3
  4,                                      !- Hour 4
  0,                                      !- Minute 4
  0.563777372262774,                      !- Value Until Time 4
  5,                                      !- Hour 5
  0,                                      !- Minute 5
  0.548540145985401,                      !- Value Until Time 5
  6,                                      !- Hour 6
  0,                                      !- Minute 6
  0.548540145985401,                      !- Value Until Time 6
  7,                                      !- Hour 7
  0,                                      !- Minute 7
  0.579014598540146,                      !- Value Until Time 7
  8,                                      !- Hour 8
  0,                                      !- Minute 8
  0.60948905109489,                       !- Value Until Time 8
  9,                                      !- Hour 9
  0,                                      !- Minute 9
  0.624726277372263,                      !- Value Until Time 9
  10,                                     !- Hour 10
  0,                                      !- Minute 10
  0.624726277372263,                      !- Value Until Time 10
  11,                                     !- Hour 11
  0,                                      !- Minute 11
  0.60948905109489,                       !- Value Until Time 11
  12,                                     !- Hour 12
  0,                                      !- Minute 12
  0.60948905109489,                       !- Value Until Time 12
  13,                                     !- Hour 13
  0,                                      !- Minute 13
  0.639963503649635,                      !- Value Until Time 13
  14,                                     !- Hour 14
  0,                                      !- Minute 14
  0.639963503649635,                      !- Value Until Time 14
  15,                                     !- Hour 15
  0,                                      !- Minute 15
  0.639963503649635,                      !- Value Until Time 15
  16,                                     !- Hour 16
  0,                                      !- Minute 16
  0.624726277372263,                      !- Value Until Time 16
  17,                                     !- Hour 17
  0,                                      !- Minute 17
  0.670437956204379,                      !- Value Until Time 17
  18,                                     !- Hour 18
  0,                                      !- Minute 18
  0.731386861313868,                      !- Value Until Time 18
  19,                                     !- Hour 19
  0,                                      !- Minute 19
  0.761861313868613,                      !- Value Until Time 19
  20,                                     !- Hour 20
  0,                                      !- Minute 20
  0.731386861313868,                      !- Value Until Time 20
  21,                                     !- Hour 21
  0,                                      !- Minute 21
  0.716149635036496,                      !- Value Until Time 21
  22,                                     !- Hour 22
  0,                                      !- Minute 22
  0.700912408759124,                      !- Value Until Time 22
  23,                                     !- Hour 23
  0,                                      !- Minute 23
  0.670437956204379,                      !- Value Until Time 23
  24,                                     !- Hour 24
  0,                                      !- Minute 24
  0.624726277372263;                      !- Value Until Time 24

OS:Schedule:Rule,
  {56e914a6-1e28-4b86-a110-1a0174f70c27}, !- Handle
  fridge_weekend_ruleset2,                !- Name
  {e42560dc-2171-4c66-b9e6-3262feee7ef0}, !- Schedule Ruleset Name
  20,                                     !- Rule Order
  {98e1e260-35b9-4338-99bf-472bd00fb148}, !- Day Schedule Name
  Yes,                                    !- Apply Sunday
  No,                                     !- Apply Monday
  No,                                     !- Apply Tuesday
  No,                                     !- Apply Wednesday
  No,                                     !- Apply Thursday
  No,                                     !- Apply Friday
  Yes,                                    !- Apply Saturday
  ,                                       !- Apply Holiday
  DateRange,                              !- Date Specification Type
  2,                                      !- Start Month
  1,                                      !- Start Day
  2,                                      !- End Month
  28;                                     !- End Day

OS:Schedule:Day,
  {98e1e260-35b9-4338-99bf-472bd00fb148}, !- Handle
  RefrigeratorWeekend2,                   !- Name
  ,                                       !- Schedule Type Limits Name
  ,                                       !- Interpolate to Timestep
  1,                                      !- Hour 1
  0,                                      !- Minute 1
  0.60948905109489,                       !- Value Until Time 1
  2,                                      !- Hour 2
  0,                                      !- Minute 2
  0.594251824817518,                      !- Value Until Time 2
  3,                                      !- Hour 3
  0,                                      !- Minute 3
  0.579014598540146,                      !- Value Until Time 3
  4,                                      !- Hour 4
  0,                                      !- Minute 4
  0.563777372262774,                      !- Value Until Time 4
  5,                                      !- Hour 5
  0,                                      !- Minute 5
  0.548540145985401,                      !- Value Until Time 5
  6,                                      !- Hour 6
  0,                                      !- Minute 6
  0.548540145985401,                      !- Value Until Time 6
  7,                                      !- Hour 7
  0,                                      !- Minute 7
  0.579014598540146,                      !- Value Until Time 7
  8,                                      !- Hour 8
  0,                                      !- Minute 8
  0.60948905109489,                       !- Value Until Time 8
  9,                                      !- Hour 9
  0,                                      !- Minute 9
  0.624726277372263,                      !- Value Until Time 9
  10,                                     !- Hour 10
  0,                                      !- Minute 10
  0.624726277372263,                      !- Value Until Time 10
  11,                                     !- Hour 11
  0,                                      !- Minute 11
  0.60948905109489,                       !- Value Until Time 11
  12,                                     !- Hour 12
  0,                                      !- Minute 12
  0.60948905109489,                       !- Value Until Time 12
  13,                                     !- Hour 13
  0,                                      !- Minute 13
  0.639963503649635,                      !- Value Until Time 13
  14,                                     !- Hour 14
  0,                                      !- Minute 14
  0.639963503649635,                      !- Value Until Time 14
  15,                                     !- Hour 15
  0,                                      !- Minute 15
  0.639963503649635,                      !- Value Until Time 15
  16,                                     !- Hour 16
  0,                                      !- Minute 16
  0.624726277372263,                      !- Value Until Time 16
  17,                                     !- Hour 17
  0,                                      !- Minute 17
  0.670437956204379,                      !- Value Until Time 17
  18,                                     !- Hour 18
  0,                                      !- Minute 18
  0.731386861313868,                      !- Value Until Time 18
  19,                                     !- Hour 19
  0,                                      !- Minute 19
  0.761861313868613,                      !- Value Until Time 19
  20,                                     !- Hour 20
  0,                                      !- Minute 20
  0.731386861313868,                      !- Value Until Time 20
  21,                                     !- Hour 21
  0,                                      !- Minute 21
  0.716149635036496,                      !- Value Until Time 21
  22,                                     !- Hour 22
  0,                                      !- Minute 22
  0.700912408759124,                      !- Value Until Time 22
  23,                                     !- Hour 23
  0,                                      !- Minute 23
  0.670437956204379,                      !- Value Until Time 23
  24,                                     !- Hour 24
  0,                                      !- Minute 24
  0.624726277372263;                      !- Value Until Time 24

OS:Schedule:Rule,
  {53720f93-2fa9-4541-88a3-f351f71c8e82}, !- Handle
  fridge_weekday_ruleset3,                !- Name
  {e42560dc-2171-4c66-b9e6-3262feee7ef0}, !- Schedule Ruleset Name
  19,                                     !- Rule Order
  {c7731cdc-6eda-4f80-84fc-7ed3e1fabd28}, !- Day Schedule Name
  No,                                     !- Apply Sunday
  Yes,                                    !- Apply Monday
  Yes,                                    !- Apply Tuesday
  Yes,                                    !- Apply Wednesday
  Yes,                                    !- Apply Thursday
  Yes,                                    !- Apply Friday
  No,                                     !- Apply Saturday
  ,                                       !- Apply Holiday
  DateRange,                              !- Date Specification Type
  3,                                      !- Start Month
  1,                                      !- Start Day
  3,                                      !- End Month
  31;                                     !- End Day

OS:Schedule:Day,
  {c7731cdc-6eda-4f80-84fc-7ed3e1fabd28}, !- Handle
  RefrigeratorWeekday3,                   !- Name
  ,                                       !- Schedule Type Limits Name
  ,                                       !- Interpolate to Timestep
  1,                                      !- Hour 1
  0,                                      !- Minute 1
  0.791240875912409,                      !- Value Until Time 1
  2,                                      !- Hour 2
  0,                                      !- Minute 2
  0.771459854014598,                      !- Value Until Time 2
  3,                                      !- Hour 3
  0,                                      !- Minute 3
  0.751678832116788,                      !- Value Until Time 3
  4,                                      !- Hour 4
  0,                                      !- Minute 4
  0.731897810218978,                      !- Value Until Time 4
  5,                                      !- Hour 5
  0,                                      !- Minute 5
  0.712116788321168,                      !- Value Until Time 5
  6,                                      !- Hour 6
  0,                                      !- Minute 6
  0.712116788321168,                      !- Value Until Time 6
  7,                                      !- Hour 7
  0,                                      !- Minute 7
  0.751678832116788,                      !- Value Until Time 7
  8,                                      !- Hour 8
  0,                                      !- Minute 8
  0.791240875912409,                      !- Value Until Time 8
  9,                                      !- Hour 9
  0,                                      !- Minute 9
  0.811021897810219,                      !- Value Until Time 9
  10,                                     !- Hour 10
  0,                                      !- Minute 10
  0.811021897810219,                      !- Value Until Time 10
  11,                                     !- Hour 11
  0,                                      !- Minute 11
  0.791240875912409,                      !- Value Until Time 11
  12,                                     !- Hour 12
  0,                                      !- Minute 12
  0.791240875912409,                      !- Value Until Time 12
  13,                                     !- Hour 13
  0,                                      !- Minute 13
  0.830802919708029,                      !- Value Until Time 13
  14,                                     !- Hour 14
  0,                                      !- Minute 14
  0.830802919708029,                      !- Value Until Time 14
  15,                                     !- Hour 15
  0,                                      !- Minute 15
  0.830802919708029,                      !- Value Until Time 15
  16,                                     !- Hour 16
  0,                                      !- Minute 16
  0.811021897810219,                      !- Value Until Time 16
  17,                                     !- Hour 17
  0,                                      !- Minute 17
  0.87036496350365,                       !- Value Until Time 17
  18,                                     !- Hour 18
  0,                                      !- Minute 18
  0.94948905109489,                       !- Value Until Time 18
  19,                                     !- Hour 19
  0,                                      !- Minute 19
  0.989051094890511,                      !- Value Until Time 19
  20,                                     !- Hour 20
  0,                                      !- Minute 20
  0.94948905109489,                       !- Value Until Time 20
  21,                                     !- Hour 21
  0,                                      !- Minute 21
  0.92970802919708,                       !- Value Until Time 21
  22,                                     !- Hour 22
  0,                                      !- Minute 22
  0.90992700729927,                       !- Value Until Time 22
  23,                                     !- Hour 23
  0,                                      !- Minute 23
  0.87036496350365,                       !- Value Until Time 23
  24,                                     !- Hour 24
  0,                                      !- Minute 24
  0.811021897810219;                      !- Value Until Time 24

OS:Schedule:Rule,
  {eed96b2f-9fc2-4c7d-af8e-3f9610756713}, !- Handle
  fridge_weekend_ruleset3,                !- Name
  {e42560dc-2171-4c66-b9e6-3262feee7ef0}, !- Schedule Ruleset Name
  18,                                     !- Rule Order
  {c9907cba-f628-4970-b1c1-8298e5712ecc}, !- Day Schedule Name
  Yes,                                    !- Apply Sunday
  No,                                     !- Apply Monday
  No,                                     !- Apply Tuesday
  No,                                     !- Apply Wednesday
  No,                                     !- Apply Thursday
  No,                                     !- Apply Friday
  Yes,                                    !- Apply Saturday
  ,                                       !- Apply Holiday
  DateRange,                              !- Date Specification Type
  3,                                      !- Start Month
  1,                                      !- Start Day
  3,                                      !- End Month
  31;                                     !- End Day

OS:Schedule:Day,