
OS:Version,
  {1f9a4492-427e-42e7-9cc3-0ee5b42dad45}, !- Handle
  1.3.1;                                  !- Version Identifier

OS:Construction,
  {f81fe42b-4c66-4ad6-9fbc-47e18f0acd8b}, !- Handle
  ExtInsFinWall,                          !- Name
  ,                                       !- Surface Rendering Name
  {0c2498b5-4902-4db2-aa7b-0dd7aa07db42}, !- Layer 1
  {3a78a369-74b1-4d23-8e0b-38a58ff5f840}, !- Layer 2
  {2d80f9b5-eeb8-441f-8903-52d33ffcea2b}, !- Layer 3
  {292c0933-a0d4-4184-b2bc-19f4cfec8aac}, !- Layer 4
  {bfbd3824-1105-4de0-8e8e-6def50a6c68e}, !- Layer 5
  {9f3fa99c-9c6d-427d-9264-73a69923dd96}; !- Layer 6

OS:Material,
  {0c2498b5-4902-4db2-aa7b-0dd7aa07db42}, !- Handle
  Exterior_Finish_Vinyl_Light,            !- Name
  Rough,                                  !- Roughness
  0.009525,                               !- Thickness {m}
  0.089435,                               !- Conductivity {W/m-K}
  177.822,                                !- Density {kg/m3}
  1046.75,                                !- Specific Heat {J/kg-K}
  0.9,                                    !- Thermal Absorptance
  0.3,                                    !- Solar Absorptance
  0.3;                                    !- Visible Absorptance

OS:Material,
  {9f3fa99c-9c6d-427d-9264-73a69923dd96}, !- Handle
  GypsumBoard_1_2in,                      !- Name
  Rough,                                  !- Roughness
  0.0127,                                 !- Thickness {m}
  0.1602906,                              !- Conductivity {W/m-K}
  801,                                    !- Density {kg/m3}
  837.4;                                  !- Specific Heat {J/kg-K}

OS:Material,
  {3a78a369-74b1-4d23-8e0b-38a58ff5f840}, !- Handle
  SplineLayer,                            !- Name
  Rough,                                  !- Roughness
  0.0127,                                 !- Thickness {m}
  0.0343321797667367,                     !- Conductivity {W/m-K}
  147.0636,                               !- Density {kg/m3}
  1214.23;                                !- Specific Heat {J/kg-K}

OS:Material,
  {2d80f9b5-eeb8-441f-8903-52d33ffcea2b}, !- Handle
  WallIns,                                !- Name
  Rough,                                  !- Roughness
  0.066675,                               !- Thickness {m}
  0.0432304226285714,                     !- Conductivity {W/m-K}
  107.0136,                               !- Density {kg/m3}
  1214.23;                                !- Specific Heat {J/kg-K}

OS:Material,
  {292c0933-a0d4-4184-b2bc-19f4cfec8aac}, !- Handle
  SplineLayer 1,                          !- Name
  Rough,                                  !- Roughness
  0.0127,                                 !- Thickness {m}
  0.0343321797667367,                     !- Conductivity {W/m-K}
  147.0636,                               !- Density {kg/m3}
  1214.23;                                !- Specific Heat {J/kg-K}

OS:Material,
  {bfbd3824-1105-4de0-8e8e-6def50a6c68e}, !- Handle
  IntSheathing,                           !- Name
  Rough,                                  !- Roughness
  0.011176,                               !- Thickness {m}
  0.1154577,                              !- Conductivity {W/m-K}
  512.64,                                 !- Density {kg/m3}
  1214.23;                                !- Specific Heat {J/kg-K}

