
OS:Version,
  {4779ba2d-636e-41a9-9fd0-895e090673e8}, !- Handle
  1.3.1;                                  !- Version Identifier

OS:WindowMaterial:SimpleGlazingSystem,
  {1cac62d2-2b9f-45d6-85b4-3b5cef342507}, !- Handle
  Double-Pane Glass,                      !- Name
  2.78175953220479,                       !- U-Factor {W/m2-K}
  0.562117344897417;                      !- Solar Heat Gain Coefficient

OS:Construction,
  {3ac9eb71-e9ce-4588-8c81-4ab815912d46}, !- Handle
  Double-Pane Clear Non-metal Frame Air Fill, !- Name
  ,                                       !- Surface Rendering Name
  {1cac62d2-2b9f-45d6-85b4-3b5cef342507}; !- Layer 1

OS:StandardsInformation:Construction,
  {34a6d7bc-732c-4cd8-ba5b-7f53470441ce}, !- Handle
  {3ac9eb71-e9ce-4588-8c81-4ab815912d46}, !- Construction Name
  ExteriorWindow;                         !- Intended Surface Type

