
OS:Version,
  {f9aa3ad5-b63a-4cac-8f66-a0ed3b5e9476}, !- Handle
  1.3.1;                                  !- Version Identifier

OS:Construction,
  {ed1e7e11-2291-4837-a200-ace6569b06a8}, !- Handle
  Double-Pane Clear Non-metal Frame Air Fill, !- Name
  ,                                       !- Surface Rendering Name
  {fb197d2b-122b-4b74-a560-68268d618e80}; !- Layer 1

OS:WindowMaterial:SimpleGlazingSystem,
  {fb197d2b-122b-4b74-a560-68268d618e80}, !- Handle
  Double-Pane Glass,                      !- Name
  2.78175953220479,                       !- U-Factor {W/m2-K}
  0.562117344897417;                      !- Solar Heat Gain Coefficient

OS:StandardsInformation:Construction,
  {97b2847f-6bd1-4d6b-9c33-0c780024891e}, !- Handle
  {ed1e7e11-2291-4837-a200-ace6569b06a8}, !- Construction Name
  ExteriorWindow;                         !- Intended Surface Type

OS:ComponentData,
  {f0127573-b93d-4cc5-99b0-0c500e9ac860}, !- Handle
  Component Data 1,                       !- Name
  {4c505878-605c-4252-992c-211be4381107}, !- UUID
  {8ee5953e-f000-4389-af7e-97c4a0f051a9}, !- Version UUID
  1406055300,                             !- Creation Timestamp
  1406055300,                             !- Version Timestamp
  {ed1e7e11-2291-4837-a200-ace6569b06a8}, !- Name of Object 1
  {fb197d2b-122b-4b74-a560-68268d618e80}, !- Name of Object 2
  {97b2847f-6bd1-4d6b-9c33-0c780024891e}; !- Name of Object 3

