
OS:Version,
  {60970090-1eca-4f78-a6fd-2dee01772a33}, !- Handle
  1.9.0;                                  !- Version Identifier

OS:Site,
  {4c9287a4-6bc3-4349-8b51-a8bff5c97597}, !- Handle
  Chicago Ohare Intl Ap,                  !- Name
  41.98,                                  !- Latitude {deg}
  -87.92,                                 !- Longitude {deg}
  -6,                                     !- Time Zone {hr}
  201,                                    !- Elevation {m}
  Suburbs;                                !- Terrain

OS:SimulationControl,
  {f42c26ec-b985-4b99-8db2-a1db54145446}, !- Handle
  Yes,                                    !- Do Zone Sizing Calculation
  No,                                     !- Do System Sizing Calculation
  Yes,                                    !- Do Plant Sizing Calculation
  No,                                     !- Run Simulation for Sizing Periods
  Yes,                                    !- Run Simulation for Weather File Run Periods
  0.05,                                   !- Loads Convergence Tolerance Value
  0.05,                                   !- Temperature Convergence Tolerance Value {deltaC}
  FullExterior,                           !- Solar Distribution
  50;                                     !- Maximum Number of Warmup Days

OS:SubSurface,
  {4dffa3d1-f524-46aa-ae19-75728bd58ab6}, !- Handle
  Wall48-Window3,                         !- Name
  FixedWindow,                            !- Sub Surface Type
  ,                                       !- Construction Name
  {1a3f94ef-0403-4a2a-8a2a-de11a6f4b552}, !- Surface Name
  ,                                       !- Outside Boundary Condition Object
  0.5,                                    !- View Factor to Ground
  ,                                       !- Shading Control Name
  ,                                       !- Frame and Divider Name
  1,                                      !- Multiplier
  ,                                       !- Number of Vertices
  2.43461243328, 7.3152, 2.1336,          !- X,Y,Z Vertex 1 {m}
  2.43461243328, 7.3152, 1.062076886256,  !- X,Y,Z Vertex 2 {m}
  1.630769129616, 7.3152, 1.062076886256, !- X,Y,Z Vertex 3 {m}
  1.630769129616, 7.3152, 2.1336;         !- X,Y,Z Vertex 4 {m}

OS:Surface,
  {1a3f94ef-0403-4a2a-8a2a-de11a6f4b552}, !- Handle
  Wall48,                                 !- Name
  Wall,                                   !- Surface Type
  ,                                       !- Construction Name
  {74b5d1b0-fe7f-4e75-915a-ccc3687786f3}, !- Space Name
  Outdoors,                               !- Outside Boundary Condition
  ,                                       !- Outside Boundary Condition Object
  SunExposed,                             !- Sun Exposure
  WindExposed,                            !- Wind Exposure
  ,                                       !- View Factor to Ground
  ,                                       !- Number of Vertices
  8.2296, 7.3152, 2.4384,                 !- X,Y,Z Vertex 1 {m}
  8.2296, 7.3152, 0,                      !- X,Y,Z Vertex 2 {m}
  0, 7.3152, 0,                           !- X,Y,Z Vertex 3 {m}
  0, 7.3152, 2.4384;                      !- X,Y,Z Vertex 4 {m}

OS:ThermalZone,
  {69cdd3fe-9212-4029-b188-6e6665589311}, !- Handle
  living_20 Thermal Zone,                 !- Name
  1,                                      !- Multiplier
  2.4384,                                 !- Ceiling Height {m}
  146.794534848,                          !- Volume {m3}
  ,                                       !- Floor Area {m2}
  ,                                       !- Zone Inside Convection Algorithm
  ,                                       !- Zone Outside Convection Algorithm
  ,                                       !- Zone Conditioning Equipment List Name
  {19d2b03d-b213-45d3-b45d-520a1243e7af}, !- Zone Air Inlet Port List
  {f37513dc-80fa-4631-9000-4fae668ec4c2}, !- Zone Air Exhaust Port List
  {75a53cf0-9c36-43d3-b0e5-0ea32e053bc8}, !- Zone Air Node Name
  ,                                       !- Zone Return Air Node Name
  ,                                       !- Primary Daylighting Control Name
  ,                                       !- Fraction of Zone Controlled by Primary Daylighting Control
  ,                                       !- Secondary Daylighting Control Name
  ,                                       !- Fraction of Zone Controlled by Secondary Daylighting Control
  ,                                       !- Illuminance Map Name
  {f2f9041d-08fa-4ed1-afac-4a1cbb6f6de9}, !- Group Rendering Name
  ,                                       !- Thermostat Name
  No;                                     !- Use Ideal Air Loads

OS:Node,
  {d2b81478-bb56-4684-9610-8e2574c52599}, !- Handle
  {614b9028-a57d-4ec7-b448-3adbe56eef6a}, !- Name
  {75a53cf0-9c36-43d3-b0e5-0ea32e053bc8}, !- Inlet Port
  ;                                       !- Outlet Port

OS:Connection,
  {75a53cf0-9c36-43d3-b0e5-0ea32e053bc8}, !- Handle
  {bdc2f7d4-9f06-44eb-bdd3-c1777dbd7caf}, !- Name
  {69cdd3fe-9212-4029-b188-6e6665589311}, !- Source Object
  11,                                     !- Outlet Port
  {d2b81478-bb56-4684-9610-8e2574c52599}, !- Target Object
  2;                                      !- Inlet Port

OS:PortList,
  {19d2b03d-b213-45d3-b45d-520a1243e7af}, !- Handle
  {acb08a89-cffd-47e4-85cf-898ed3259518}, !- Name
  {69cdd3fe-9212-4029-b188-6e6665589311}; !- HVAC Component

OS:PortList,
  {f37513dc-80fa-4631-9000-4fae668ec4c2}, !- Handle
  {181f7041-8973-4791-8a86-b5cf5b29a510}, !- Name
  {69cdd3fe-9212-4029-b188-6e6665589311}; !- HVAC Component

OS:Sizing:Zone,
  {ecb812cb-c57a-4936-ae1c-d87ad9f3f15d}, !- Handle
  {69cdd3fe-9212-4029-b188-6e6665589311}, !- Zone or ZoneList Name
  14,                                     !- Zone Cooling Design Supply Air Temperature {C}
  40,                                     !- Zone Heating Design Supply Air Temperature {C}
  0.0085,                                 !- Zone Cooling Design Supply Air Humidity Ratio {kg-H2O/kg-air}
  0.008,                                  !- Zone Heating Design Supply Air Humidity Ratio {kg-H2O/kg-air}
  ,                                       !- Zone Heating Sizing Factor
  ,                                       !- Zone Cooling Sizing Factor
  DesignDay,                              !- Cooling Design Air Flow Method
  ,                                       !- Cooling Design Air Flow Rate {m3/s}
  ,                                       !- Cooling Minimum Air Flow per Zone Floor Area {m3/s-m2}
  ,                                       !- Cooling Minimum Air Flow {m3/s}
  ,                                       !- Cooling Minimum Air Flow Fraction
  DesignDay,                              !- Heating Design Air Flow Method
  ,                                       !- Heating Design Air Flow Rate {m3/s}
  ,                                       !- Heating Maximum Air Flow per Zone Floor Area {m3/s-m2}
  ,                                       !- Heating Maximum Air Flow {m3/s}
  ,                                       !- Heating Maximum Air Flow Fraction
  ,                                       !- Design Zone Air Distribution Effectiveness in Cooling Mode
  ;                                       !- Design Zone Air Distribution Effectiveness in Heating Mode

OS:ZoneHVAC:EquipmentList,
  {4f5894c0-f6de-4745-8c2b-934c0df2b1b0}, !- Handle
  {49b98e9b-ff7f-4020-83eb-b10f28a4af6c}, !- Name
  {69cdd3fe-9212-4029-b188-6e6665589311}; !- Thermal Zone

OS:Space,
  {74b5d1b0-fe7f-4e75-915a-ccc3687786f3}, !- Handle
  living_20,                              !- Name
  {6124d5c1-7a26-4186-9581-89bb4dc2ef29}, !- Space Type Name
  ,                                       !- Default Construction Set Name
  ,                                       !- Default Schedule Set Name
  0,                                      !- Direction of Relative North {deg}
  -20.574,                                !- X Origin {m}
  0.762,                                  !- Y Origin {m}
  2.4384,                                 !- Z Origin {m}
  ,                                       !- Building Story Name
  {69cdd3fe-9212-4029-b188-6e6665589311}, !- Thermal Zone Name
  ,                                       !- Part of Total Floor Area
  ;                                       !- Design Specification Outdoor Air Object Name

OS:Surface,
  {63ea2d5f-3120-4484-8e16-91a7d69a21c7}, !- Handle
  Wall135,                                !- Name
  Wall,                                   !- Surface Type
  ,                                       !- Construction Name
  {80fb6742-51b1-4b3a-9d2c-b435fd286494}, !- Space Name
  Adiabatic,                              !- Outside Boundary Condition
  ,                                       !- Outside Boundary Condition Object
  NoSun,                                  !- Sun Exposure
  NoWind,                                 !- Wind Exposure
  0,                                      !- View Factor to Ground
  ,                                       !- Number of Vertices
  0, 7.3152, 2.4384,                      !- X,Y,Z Vertex 1 {m}
  0, 7.3152, 0,                           !- X,Y,Z Vertex 2 {m}
  8.2296, 7.3152, 0,                      !- X,Y,Z Vertex 3 {m}
  8.2296, 7.3152, 2.4384;                 !- X,Y,Z Vertex 4 {m}

OS:ThermalZone,
  {563a18fd-1509-4119-800a-d02ea801dd0e}, !- Handle
  living_44 Thermal Zone,                 !- Name
  1,                                      !- Multiplier
  2.4384,                                 !- Ceiling Height {m}
  146.794534848,                          !- Volume {m3}
  ,                                       !- Floor Area {m2}
  ,                                       !- Zone Inside Convection Algorithm
  ,                                       !- Zone Outside Convection Algorithm
  ,                                       !- Zone Conditioning Equipment List Name
  {72ec34cf-0f5a-4b87-8c5d-843edbd17309}, !- Zone Air Inlet Port List
  {c1994062-8fc2-4a05-a68b-8de81c2efc99}, !- Zone Air Exhaust Port List
  {abc7aa73-f28b-4746-bebb-1033596cd53f}, !- Zone Air Node Name
  ,                                       !- Zone Return Air Node Name
  ,                                       !- Primary Daylighting Control Name
  ,                                       !- Fraction of Zone Controlled by Primary Daylighting Control
  ,                                       !- Secondary Daylighting Control Name
  ,                                       !- Fraction of Zone Controlled by Secondary Daylighting Control
  ,                                       !- Illuminance Map Name
  {92bda9c2-90c3-4aba-a9f1-1afefc5a2f71}, !- Group Rendering Name
  ,                                       !- Thermostat Name
  No;                                     !- Use Ideal Air Loads

OS:Node,
  {55338aeb-6140-42b8-b2c6-e326c4e7f6fa}, !- Handle
  {8376eb12-2607-4ab9-be99-53050d283dd6}, !- Name
  {abc7aa73-f28b-4746-bebb-1033596cd53f}, !- Inlet Port
  ;                                       !- Outlet Port

OS:Connection,
  {abc7aa73-f28b-4746-bebb-1033596cd53f}, !- Handle
  {75efef81-979c-4eac-8aee-7303f50e4baa}, !- Name
  {563a18fd-1509-4119-800a-d02ea801dd0e}, !- Source Object
  11,                                     !- Outlet Port
  {55338aeb-6140-42b8-b2c6-e326c4e7f6fa}, !- Target Object
  2;                                      !- Inlet Port

OS:PortList,
  {72ec34cf-0f5a-4b87-8c5d-843edbd17309}, !- Handle
  {bd74e0a2-3369-42ff-9f52-58c4fcfc0944}, !- Name
  {563a18fd-1509-4119-800a-d02ea801dd0e}; !- HVAC Component

OS:PortList,
  {c1994062-8fc2-4a05-a68b-8de81c2efc99}, !- Handle
  {549383ac-46e3-481b-95db-fd60c8c9cb45}, !- Name
  {563a18fd-1509-4119-800a-d02ea801dd0e}; !- HVAC Component

OS:Sizing:Zone,
  {4b7b36f4-9bd9-4f85-9dd4-a8f4aadb26ea}, !- Handle
  {563a18fd-1509-4119-800a-d02ea801dd0e}, !- Zone or ZoneList Name
  14,                                     !- Zone Cooling Design Supply Air Temperature {C}
  40,                                     !- Zone Heating Design Supply Air Temperature {C}
  0.0085,                                 !- Zone Cooling Design Supply Air Humidity Ratio {kg-H2O/kg-air}
  0.008,                                  !- Zone Heating Design Supply Air Humidity Ratio {kg-H2O/kg-air}
  ,                                       !- Zone Heating Sizing Factor
  ,                                       !- Zone Cooling Sizing Factor
  DesignDay,                              !- Cooling Design Air Flow Method
  ,                                       !- Cooling Design Air Flow Rate {m3/s}
  ,                                       !- Cooling Minimum Air Flow per Zone Floor Area {m3/s-m2}
  ,                                       !- Cooling Minimum Air Flow {m3/s}
  ,                                       !- Cooling Minimum Air Flow Fraction
  DesignDay,                              !- Heating Design Air Flow Method
  ,                                       !- Heating Design Air Flow Rate {m3/s}
  ,                                       !- Heating Maximum Air Flow per Zone Floor Area {m3/s-m2}
  ,                                       !- Heating Maximum Air Flow {m3/s}
  ,                                       !- Heating Maximum Air Flow Fraction
  ,                                       !- Design Zone Air Distribution Effectiveness in Cooling Mode
  ;                                       !- Design Zone Air Distribution Effectiveness in Heating Mode

OS:ZoneHVAC:EquipmentList,
  {4b263aa4-365f-4909-94e4-80e82455c61b}, !- Handle
  {45ac1365-5b74-47f0-bde5-1c2bcb90458c}, !- Name
  {563a18fd-1509-4119-800a-d02ea801dd0e}; !- Thermal Zone

OS:Space,
  {80fb6742-51b1-4b3a-9d2c-b435fd286494}, !- Handle
  living_44,                              !- Name
  {6124d5c1-7a26-4186-9581-89bb4dc2ef29}, !- Space Type Name
  ,                                       !- Default Construction Set Name
  ,                                       !- Default Schedule Set Name
  0,                                      !- Direction of Relative North {deg}
  4.1148,                                 !- X Origin {m}
  -8.0772,                                !- Y Origin {m}
  9.7536,                                 !- Z Origin {m}
  ,                                       !- Building Story Name
  {563a18fd-1509-4119-800a-d02ea801dd0e}, !- Thermal Zone Name
  ,                                       !- Part of Total Floor Area
  ;                                       !- Design Specification Outdoor Air Object Name

OS:Surface,
  {1ea7e11f-abe2-4522-a6cf-68ffd0c6bcf2}, !- Handle
  Wall37,                                 !- Name
  Wall,                                   !- Surface Type
  ,                                       !- Construction Name
  {d2e8f25e-49e2-4b67-92f9-64f7ff1466e5}, !- Space Name
  Adiabatic,                              !- Outside Boundary Condition
  ,                                       !- Outside Boundary Condition Object
  NoSun,                                  !- Sun Exposure
  NoWind,                                 !- Wind Exposure
  0,                                      !- View Factor to Ground
  ,                                       !- Number of Vertices
  0, 7.3152, 2.4384,                      !- X,Y,Z Vertex 1 {m}
  0, 7.3152, 0,                           !- X,Y,Z Vertex 2 {m}
  8.2296, 7.3152, 0,                      !- X,Y,Z Vertex 3 {m}
  8.2296, 7.3152, 2.4384;                 !- X,Y,Z Vertex 4 {m}

OS:ThermalZone,
  {410f4d86-a319-4662-9a89-05b801be62cd}, !- Handle
  living_12 Thermal Zone,                 !- Name
  1,                                      !- Multiplier
  2.4384,                                 !- Ceiling Height {m}
  146.794534848,                          !- Volume {m3}
  ,                                       !- Floor Area {m2}
  ,                                       !- Zone Inside Convection Algorithm
  ,                                       !- Zone Outside Convection Algorithm
  ,                                       !- Zone Conditioning Equipment List Name
  {89c9e8a5-da4b-4b00-b0d8-fc0a29c9b99a}, !- Zone Air Inlet Port List
  {ec5cb1dc-6f5c-4907-804d-eb0bd5f7a789}, !- Zone Air Exhaust Port List
  {463d2794-3d87-494d-a7d2-0c153395aa5b}, !- Zone Air Node Name
  ,                                       !- Zone Return Air Node Name
  ,                                       !- Primary Daylighting Control Name
  ,                                       !- Fraction of Zone Controlled by Primary Daylighting Control
  ,                                       !- Secondary Daylighting Control Name
  ,                                       !- Fraction of Zone Controlled by Secondary Daylighting Control
  ,                                       !- Illuminance Map Name
  {e01fb6a1-3758-4e0a-a6cb-bb181c61737b}, !- Group Rendering Name
  ,                                       !- Thermostat Name
  No;                                     !- Use Ideal Air Loads

OS:Node,
  {f8bf9155-0830-4ee6-bbb9-21f8d3882f55}, !- Handle
  {9c6f973a-3ad0-433b-9f6e-fbf893cf6b95}, !- Name
  {463d2794-3d87-494d-a7d2-0c153395aa5b}, !- Inlet Port
  ;                                       !- Outlet Port

OS:Connection,
  {463d2794-3d87-494d-a7d2-0c153395aa5b}, !- Handle
  {9eb5a466-2afb-4b5b-9e4d-e3aaaba40f61}, !- Name
  {410f4d86-a319-4662-9a89-05b801be62cd}, !- Source Object
  11,                                     !- Outlet Port
  {f8bf9155-0830-4ee6-bbb9-21f8d3882f55}, !- Target Object
  2;                                      !- Inlet Port

OS:PortList,
  {89c9e8a5-da4b-4b00-b0d8-fc0a29c9b99a}, !- Handle
  {de147900-17f1-4d36-aae5-12bb3dba88b0}, !- Name
  {410f4d86-a319-4662-9a89-05b801be62cd}; !- HVAC Component

OS:PortList,
  {ec5cb1dc-6f5c-4907-804d-eb0bd5f7a789}, !- Handle
  {a30ee50a-581f-4b8f-9013-332ed0e13550}, !- Name
  {410f4d86-a319-4662-9a89-05b801be62cd}; !- HVAC Component

OS:Sizing:Zone,
  {160b3ff5-3aa6-42ce-924c-7c835cb9b2b7}, !- Handle
  {410f4d86-a319-4662-9a89-05b801be62cd}, !- Zone or ZoneList Name
  14,                                     !- Zone Cooling Design Supply Air Temperature {C}
  40,                                     !- Zone Heating Design Supply Air Temperature {C}
  0.0085,                                 !- Zone Cooling Design Supply Air Humidity Ratio {kg-H2O/kg-air}
  0.008,                                  !- Zone Heating Design Supply Air Humidity Ratio {kg-H2O/kg-air}
  ,                                       !- Zone Heating Sizing Factor
  ,                                       !- Zone Cooling Sizing Factor
  DesignDay,                              !- Cooling Design Air Flow Method
  ,                                       !- Cooling Design Air Flow Rate {m3/s}
  ,                                       !- Cooling Minimum Air Flow per Zone Floor Area {m3/s-m2}
  ,                                       !- Cooling Minimum Air Flow {m3/s}
  ,                                       !- Cooling Minimum Air Flow Fraction
  DesignDay,                              !- Heating Design Air Flow Method
  ,                                       !- Heating Design Air Flow Rate {m3/s}
  ,                                       !- Heating Maximum Air Flow per Zone Floor Area {m3/s-m2}
  ,                                       !- Heating Maximum Air Flow {m3/s}
  ,                                       !- Heating Maximum Air Flow Fraction
  ,                                       !- Design Zone Air Distribution Effectiveness in Cooling Mode
  ;                                       !- Design Zone Air Distribution Effectiveness in Heating Mode

OS:ZoneHVAC:EquipmentList,
  {025db05d-9967-4c79-9c75-d229215104ad}, !- Handle
  {64c8b03e-465f-4912-9296-518146ab7c99}, !- Name
  {410f4d86-a319-4662-9a89-05b801be62cd}; !- Thermal Zone

OS:Space,
  {d2e8f25e-49e2-4b67-92f9-64f7ff1466e5}, !- Handle
  living_12,                              !- Name
  {6124d5c1-7a26-4186-9581-89bb4dc2ef29}, !- Space Type Name
  ,                                       !- Default Construction Set Name
  ,                                       !- Default Schedule Set Name
  0,                                      !- Direction of Relative North {deg}
  -12.3444,                               !- X Origin {m}
  -8.0772,                                !- Y Origin {m}
  2.4384,                                 !- Z Origin {m}
  ,                                       !- Building Story Name
  {410f4d86-a319-4662-9a89-05b801be62cd}, !- Thermal Zone Name
  ,                                       !- Part of Total Floor Area
  ;                                       !- Design Specification Outdoor Air Object Name

OS:SubSurface,
  {5fb65c30-e571-4ffe-83a5-0d38cd53e091}, !- Handle
  Wall152-Window2,                        !- Name
  FixedWindow,                            !- Sub Surface Type
  ,                                       !- Construction Name
  {e2d7f7f7-238f-4305-935c-54be3dec3c66}, !- Surface Name
  ,                                       !- Outside Boundary Condition Object
  0.5,                                    !- View Factor to Ground
  ,                                       !- Shading Control Name
  ,                                       !- Frame and Divider Name
  1,                                      !- Multiplier
  ,                                       !- Number of Vertices
  6.598831080696, 7.3152, 2.1336,         !- X,Y,Z Vertex 1 {m}
  6.598831080696, 7.3152, 1.062076886256, !- X,Y,Z Vertex 2 {m}
  5.794987777032, 7.3152, 1.062076886256, !- X,Y,Z Vertex 3 {m}
  5.794987777032, 7.3152, 2.1336;         !- X,Y,Z Vertex 4 {m}

OS:Surface,
  {e2d7f7f7-238f-4305-935c-54be3dec3c66}, !- Handle
  Wall152,                                !- Name
  Wall,                                   !- Surface Type
  ,                                       !- Construction Name
  {bc2a9ba3-154c-45ed-9093-50a1f1ffe7c3}, !- Space Name
  Outdoors,                               !- Outside Boundary Condition
  ,                                       !- Outside Boundary Condition Object
  SunExposed,                             !- Sun Exposure
  WindExposed,                            !- Wind Exposure
  ,                                       !- View Factor to Ground
  ,                                       !- Number of Vertices
  8.2296, 7.3152, 2.4384,                 !- X,Y,Z Vertex 1 {m}
  8.2296, 7.3152, 0,                      !- X,Y,Z Vertex 2 {m}
  0, 7.3152, 0,                           !- X,Y,Z Vertex 3 {m}
  0, 7.3152, 2.4384;                      !- X,Y,Z Vertex 4 {m}

OS:ThermalZone,
  {fb925e39-5a87-4b68-9b4d-430a40982e67}, !- Handle
  living_48 Thermal Zone,                 !- Name
  1,                                      !- Multiplier
  2.4384,                                 !- Ceiling Height {m}
  146.794534848,                          !- Volume {m3}
  ,                                       !- Floor Area {m2}
  ,                                       !- Zone Inside Convection Algorithm
  ,                                       !- Zone Outside Convection Algorithm
  ,                                       !- Zone Conditioning Equipment List Name
  {02ba8fae-33ed-48f7-a5e9-11557efbc42d}, !- Zone Air Inlet Port List
  {4a6af54f-24cb-4dfd-98a9-3fb5a0cb0fac}, !- Zone Air Exhaust Port List
  {0da4c23d-eeaa-48fe-8293-0252ba8bf866}, !- Zone Air Node Name
  ,                                       !- Zone Return Air Node Name
  ,                                       !- Primary Daylighting Control Name
  ,                                       !- Fraction of Zone Controlled by Primary Daylighting Control
  ,                                       !- Secondary Daylighting Control Name
  ,                                       !- Fraction of Zone Controlled by Secondary Daylighting Control
  ,                                       !- Illuminance Map Name
  {033204cb-62f2-487a-8214-df7dc9f90d46}, !- Group Rendering Name
  ,                                       !- Thermostat Name
  No;                                     !- Use Ideal Air Loads

OS:Node,
  {1b100f9f-43d5-425d-893a-d8b940a9946e}, !- Handle
  {6f1d3b90-8217-42a5-851c-6458db19e4df}, !- Name
  {0da4c23d-eeaa-48fe-8293-0252ba8bf866}, !- Inlet Port
  ;                                       !- Outlet Port

OS:Connection,
  {0da4c23d-eeaa-48fe-8293-0252ba8bf866}, !- Handle
  {a80dccf0-336e-4d7e-96ea-8494ddeefb86}, !- Name
  {fb925e39-5a87-4b68-9b4d-430a40982e67}, !- Source Object
  11,                                     !- Outlet Port
  {1b100f9f-43d5-425d-893a-d8b940a9946e}, !- Target Object
  2;                                      !- Inlet Port

OS:PortList,
  {02ba8fae-33ed-48f7-a5e9-11557efbc42d}, !- Handle
  {df683707-1748-4ef4-82b3-997ddd82c4ea}, !- Name
  {fb925e39-5a87-4b68-9b4d-430a40982e67}; !- HVAC Component

OS:PortList,
  {4a6af54f-24cb-4dfd-98a9-3fb5a0cb0fac}, !- Handle
  {3e6ca7da-f089-4a34-8f17-a29259b86591}, !- Name
  {fb925e39-5a87-4b68-9b4d-430a40982e67}; !- HVAC Component

OS:Sizing:Zone,
  {af7dc6f8-db9e-41b5-a39d-363bd00aa097}, !- Handle
  {fb925e39-5a87-4b68-9b4d-430a40982e67}, !- Zone or ZoneList Name
  14,                                     !- Zone Cooling Design Supply Air Temperature {C}
  40,                                     !- Zone Heating Design Supply Air Temperature {C}
  0.0085,                                 !- Zone Cooling Design Supply Air Humidity Ratio {kg-H2O/kg-air}
  0.008,                                  !- Zone Heating Design Supply Air Humidity Ratio {kg-H2O/kg-air}
  ,                                       !- Zone Heating Sizing Factor
  ,                                       !- Zone Cooling Sizing Factor
  DesignDay,                              !- Cooling Design Air Flow Method
  ,                                       !- Cooling Design Air Flow Rate {m3/s}
  ,                                       !- Cooling Minimum Air Flow per Zone Floor Area {m3/s-m2}
  ,                                       !- Cooling Minimum Air Flow {m3/s}
  ,                                       !- Cooling Minimum Air Flow Fraction
  DesignDay,                              !- Heating Design Air Flow Method
  ,                                       !- Heating Design Air Flow Rate {m3/s}
  ,                                       !- Heating Maximum Air Flow per Zone Floor Area {m3/s-m2}
  ,                                       !- Heating Maximum Air Flow {m3/s}
  ,                                       !- Heating Maximum Air Flow Fraction
  ,                                       !- Design Zone Air Distribution Effectiveness in Cooling Mode
  ;                                       !- Design Zone Air Distribution Effectiveness in Heating Mode

OS:ZoneHVAC:EquipmentList,
  {e3f7165d-7c42-4f8a-8e37-95ce294241cb}, !- Handle
  {f9f571e1-6ffb-4cba-b973-3d646e4083a5}, !- Name
  {fb925e39-5a87-4b68-9b4d-430a40982e67}; !- Thermal Zone

OS:Space,
  {bc2a9ba3-154c-45ed-9093-50a1f1ffe7c3}, !- Handle
  living_48,                              !- Name
  {6124d5c1-7a26-4186-9581-89bb4dc2ef29}, !- Space Type Name
  ,                                       !- Default Construction Set Name
  ,                                       !- Default Schedule Set Name
  0,                                      !- Direction of Relative North {deg}
  -4.1148,                                !- X Origin {m}
  0.762,                                  !- Y Origin {m}
  9.7536,                                 !- Z Origin {m}
  ,                                       !- Building Story Name
  {fb925e39-5a87-4b68-9b4d-430a40982e67}, !- Thermal Zone Name
  ,                                       !- Part of Total Floor Area
  ;                                       !- Design Specification Outdoor Air Object Name

OS:Surface,
  {b02869ab-2635-499e-b006-b286b77e8f74}, !- Handle
  IntWall13,                              !- Name
  Wall,                                   !- Surface Type
  ,                                       !- Construction Name
  {fef39be3-8ee6-46eb-8e53-f69f7d6970cb}, !- Space Name
  Adiabatic,                              !- Outside Boundary Condition
  ,                                       !- Outside Boundary Condition Object
  NoSun,                                  !- Sun Exposure
  NoWind,                                 !- Wind Exposure
  0,                                      !- View Factor to Ground
  ,                                       !- Number of Vertices
  0, 0, 2.4384,                           !- X,Y,Z Vertex 1 {m}
  0, 0, 0,                                !- X,Y,Z Vertex 2 {m}
  8.2296, 0, 0,                           !- X,Y,Z Vertex 3 {m}
  8.2296, 0, 2.4384;                      !- X,Y,Z Vertex 4 {m}

OS:ThermalZone,
  {08db3b66-5e71-4af0-895c-4051da139e77}, !- Handle
  living_6 Thermal Zone,                  !- Name
  1,                                      !- Multiplier
  2.4384,                                 !- Ceiling Height {m}
  146.794534848,                          !- Volume {m3}
  ,                                       !- Floor Area {m2}
  ,                                       !- Zone Inside Convection Algorithm
  ,                                       !- Zone Outside Convection Algorithm
  ,                                       !- Zone Conditioning Equipment List Name
  {ae7dbfc2-65a4-458d-a795-f643a723864c}, !- Zone Air Inlet Port List
  {ea5c9136-0492-491c-b233-21315a0e4466}, !- Zone Air Exhaust Port List
  {ed8b7be1-e977-4b6a-8d62-a07a6a1b340b}, !- Zone Air Node Name
  ,                                       !- Zone Return Air Node Name
  ,                                       !- Primary Daylighting Control Name
  ,                                       !- Fraction of Zone Controlled by Primary Daylighting Control
  ,                                       !- Secondary Daylighting Control Name
  ,                                       !- Fraction of Zone Controlled by Secondary Daylighting Control