
OS:Version,
  {2415ecc3-e5b7-4322-953a-540d4554cdef}, !- Handle
  1.9.0;                                  !- Version Identifier

OS:Site,
  {51a1c9c2-65ad-45b6-add3-8db9ef997893}, !- Handle
  Chicago Ohare Intl Ap,                  !- Name
  41.98,                                  !- Latitude {deg}
  -87.92,                                 !- Longitude {deg}
  -6,                                     !- Time Zone {hr}
  201,                                    !- Elevation {m}
  Suburbs;                                !- Terrain

OS:SimulationControl,
  {de32f56f-e639-4392-aed2-62c4ebe303b3}, !- Handle
  Yes,                                    !- Do Zone Sizing Calculation
  No,                                     !- Do System Sizing Calculation
  Yes,                                    !- Do Plant Sizing Calculation
  No,                                     !- Run Simulation for Sizing Periods
  Yes,                                    !- Run Simulation for Weather File Run Periods
  0.05,                                   !- Loads Convergence Tolerance Value
  0.05,                                   !- Temperature Convergence Tolerance Value {deltaC}
  FullExterior,                           !- Solar Distribution
  50;                                     !- Maximum Number of Warmup Days

OS:Surface,
  {d2013ebf-5952-481c-9e40-4e8bfb8e50a3}, !- Handle
  Floor61,                                !- Name
  Floor,                                  !- Surface Type
  {1791a66e-a36e-4577-b66e-8a5c0dea1afc}, !- Construction Name
  {f86d3e66-7c4d-4392-b140-fcc4fcdb1ad1}, !- Space Name
  Adiabatic,                              !- Outside Boundary Condition
  ,                                       !- Outside Boundary Condition Object
  NoSun,                                  !- Sun Exposure
  NoWind,                                 !- Wind Exposure
  0,                                      !- View Factor to Ground
  ,                                       !- Number of Vertices
  12.3444, 0.762, 12.192,                 !- X,Y,Z Vertex 1 {m}
  12.3444, -0.762, 12.192,                !- X,Y,Z Vertex 2 {m}
  4.1148, -0.762, 12.192,                 !- X,Y,Z Vertex 3 {m}
  4.1148, 0.762, 12.192;                  !- X,Y,Z Vertex 4 {m}

OS:Construction,
  {1791a66e-a36e-4577-b66e-8a5c0dea1afc}, !- Handle
  FinUninsFinFloor,                       !- Name
  {e833a05d-0587-4013-84fe-2f7734d155a6}, !- Surface Rendering Name
  {dbce5e5f-b2bf-44a5-b1a3-fe7e9e5196d9}, !- Layer 1
  {05b50c30-a25f-4f6e-b61a-1a9f6454885d}, !- Layer 2
  {244d719a-dca9-45ff-a0b1-661fac6c7cb7}, !- Layer 3
  {a5b11b87-a11f-4a52-9a7c-6c571724d536}, !- Layer 4
  {06901595-8cd0-433e-bfbd-30fbf063b7f8}; !- Layer 5

OS:Material,
  {dbce5e5f-b2bf-44a5-b1a3-fe7e9e5196d9}, !- Handle
  CeilingMass,                            !- Name
  Rough,                                  !- Roughness
  0.0127,                                 !- Thickness {m}
  0.1602906,                              !- Conductivity {W/m-K}
  801,                                    !- Density {kg/m3}
  837.4,                                  !- Specific Heat {J/kg-K}
  0.9,                                    !- Thermal Absorptance
  0.3,                                    !- Solar Absorptance
  0.1;                                    !- Visible Absorptance

OS:Material,
  {05b50c30-a25f-4f6e-b61a-1a9f6454885d}, !- Handle
  StudandAirFloor,                        !- Name
  Rough,                                  !- Roughness
  0.0889,                                 !- Thickness {m}
  0.448792750636364,                      !- Conductivity {W/m-K}
  67.654616890395,                        !- Density {kg/m3}
  1211.10027824949;                       !- Specific Heat {J/kg-K}

OS:Material,
  {244d719a-dca9-45ff-a0b1-661fac6c7cb7}, !- Handle
  Plywood-3_4in,                          !- Name
  Rough,                                  !- Roughness
  0.01905,                                !- Thickness {m}
  0.1154577,                              !- Conductivity {W/m-K}
  512.64,                                 !- Density {kg/m3}
  1214.23;                                !- Specific Heat {J/kg-K}

OS:Material,
  {a5b11b87-a11f-4a52-9a7c-6c571724d536}, !- Handle
  FloorMass,                              !- Name
  Rough,                                  !- Roughness
  0.015875,                               !- Thickness {m}
  0.1154577,                              !- Conductivity {W/m-K}
  544.68,                                 !- Density {kg/m3}
  1214.23,                                !- Specific Heat {J/kg-K}
  0.9,                                    !- Thermal Absorptance
  0.6;                                    !- Solar Absorptance

OS:Material,
  {06901595-8cd0-433e-bfbd-30fbf063b7f8}, !- Handle
  CarpetBareLayer,                        !- Name
  Rough,                                  !- Roughness
  0.0127,                                 !- Thickness {m}
  0.0433443509615385,                     !- Conductivity {W/m-K}
  54.468,                                 !- Density {kg/m3}
  1339.84,                                !- Specific Heat {J/kg-K}
  0.9,                                    !- Thermal Absorptance
  0.9;                                    !- Solar Absorptance

OS:ThermalZone,
  {f9b2a7d7-48bc-42a5-a882-b85dc108683e}, !- Handle
  living_57 Thermal Zone,                 !- Name
  1,                                      !- Multiplier
  4.3434,                                 !- Ceiling Height {m}
  135.421781171625,                       !- Volume {m3}
  ,                                       !- Floor Area {m2}
  ,                                       !- Zone Inside Convection Algorithm
  ,                                       !- Zone Outside Convection Algorithm
  ,                                       !- Zone Conditioning Equipment List Name
  {1262976d-d273-43a8-97ab-8b5920839c1f}, !- Zone Air Inlet Port List
  {53ed92a6-979d-405a-8b7b-92fdc1a03a80}, !- Zone Air Exhaust Port List
  {8aa43869-ed38-4375-b8b5-549822ee66b8}, !- Zone Air Node Name
  ,                                       !- Zone Return Air Node Name
  ,                                       !- Primary Daylighting Control Name
  ,                                       !- Fraction of Zone Controlled by Primary Daylighting Control
  ,                                       !- Secondary Daylighting Control Name
  ,                                       !- Fraction of Zone Controlled by Secondary Daylighting Control
  ,                                       !- Illuminance Map Name
  {bc02a436-981c-4fb3-a21d-59cf25502cbe}, !- Group Rendering Name
  ,                                       !- Thermostat Name
  No;                                     !- Use Ideal Air Loads

OS:Node,
  {9bb8e787-5976-4f29-a0d3-9c3a454b4eac}, !- Handle
  {9ec4e245-1e68-4bd3-9e63-9c0e50b9d74b}, !- Name
  {8aa43869-ed38-4375-b8b5-549822ee66b8}, !- Inlet Port
  ;                                       !- Outlet Port

OS:Connection,
  {8aa43869-ed38-4375-b8b5-549822ee66b8}, !- Handle
  {d66df775-a0cb-43ac-936d-f8baab5093d4}, !- Name
  {f9b2a7d7-48bc-42a5-a882-b85dc108683e}, !- Source Object
  11,                                     !- Outlet Port
  {9bb8e787-5976-4f29-a0d3-9c3a454b4eac}, !- Target Object
  2;                                      !- Inlet Port

OS:PortList,
  {1262976d-d273-43a8-97ab-8b5920839c1f}, !- Handle
  {e9075cf9-7263-4847-8ce8-dcf9b7658113}, !- Name
  {f9b2a7d7-48bc-42a5-a882-b85dc108683e}; !- HVAC Component

OS:PortList,
  {53ed92a6-979d-405a-8b7b-92fdc1a03a80}, !- Handle
  {e23c35d5-9740-4dac-9243-7c43b2a23bea}, !- Name
  {f9b2a7d7-48bc-42a5-a882-b85dc108683e}; !- HVAC Component

OS:Sizing:Zone,
  {f9dbaf14-5951-438b-98fa-cdc40f3de212}, !- Handle
  {f9b2a7d7-48bc-42a5-a882-b85dc108683e}, !- Zone or ZoneList Name
  14,                                     !- Zone Cooling Design Supply Air Temperature {C}
  40,                                     !- Zone Heating Design Supply Air Temperature {C}
  0.0085,                                 !- Zone Cooling Design Supply Air Humidity Ratio {kg-H2O/kg-air}
  0.008,                                  !- Zone Heating Design Supply Air Humidity Ratio {kg-H2O/kg-air}
  ,                                       !- Zone Heating Sizing Factor
  ,                                       !- Zone Cooling Sizing Factor
  DesignDay,                              !- Cooling Design Air Flow Method
  ,                                       !- Cooling Design Air Flow Rate {m3/s}
  ,                                       !- Cooling Minimum Air Flow per Zone Floor Area {m3/s-m2}
  ,                                       !- Cooling Minimum Air Flow {m3/s}
  ,                                       !- Cooling Minimum Air Flow Fraction
  DesignDay,                              !- Heating Design Air Flow Method
  ,                                       !- Heating Design Air Flow Rate {m3/s}
  ,                                       !- Heating Maximum Air Flow per Zone Floor Area {m3/s-m2}
  ,                                       !- Heating Maximum Air Flow {m3/s}
  ,                                       !- Heating Maximum Air Flow Fraction
  ,                                       !- Design Zone Air Distribution Effectiveness in Cooling Mode
  ;                                       !- Design Zone Air Distribution Effectiveness in Heating Mode

OS:ZoneHVAC:EquipmentList,
  {72a77920-6e72-4e93-8cfa-f3cd2b858c94}, !- Handle
  {7f6983e3-a007-43c2-8aeb-c7423654229e}, !- Name
  {f9b2a7d7-48bc-42a5-a882-b85dc108683e}; !- Thermal Zone

OS:Space,
  {f86d3e66-7c4d-4392-b140-fcc4fcdb1ad1}, !- Handle
  living_57,                            !- Name
  {f1ef3b33-bb4f-41c8-83de-a21606c67319}, !- Space Type Name
  ,                                       !- Default Construction Set Name
  ,                                       !- Default Schedule Set Name
  0,                                      !- Direction of Relative North {deg}
  0,                                      !- X Origin {m}
  0,                                      !- Y Origin {m}
  0,                                      !- Z Origin {m}
  ,                                       !- Building Story Name
  {f9b2a7d7-48bc-42a5-a882-b85dc108683e}, !- Thermal Zone Name
  ,                                       !- Part of Total Floor Area
  ;                                       !- Design Specification Outdoor Air Object Name

OS:SubSurface,
  {0202d684-ef06-48f1-862d-20f8e70e62aa}, !- Handle
  Wall157-Window2,                        !- Name
  FixedWindow,                            !- Sub Surface Type
  {a3b02c1b-5fcf-4706-8f46-1c7bc4714aa2}, !- Construction Name
  {078f3b6b-c273-4757-9096-2f5ef62fc6e6}, !- Surface Name
  ,                                       !- Outside Boundary Condition Object
  0.5,                                    !- View Factor to Ground
  ,                                       !- Shading Control Name
  ,                                       !- Frame and Divider Name
  1,                                      !- Multiplier
  ,                                       !- Number of Vertices
  4.14528, 0, 2.1336,                     !- X,Y,Z Vertex 1 {m}
  4.14528, 0, 1.062076886256,             !- X,Y,Z Vertex 2 {m}
  4.949123303664, 0, 1.062076886256,      !- X,Y,Z Vertex 3 {m}
  4.949123303664, 0, 2.1336;              !- X,Y,Z Vertex 4 {m}

OS:Construction,
  {a3b02c1b-5fcf-4706-8f46-1c7bc4714aa2}, !- Handle
  Front-Glass,                            !- Name
  {d022c79a-35d0-45e1-ade0-de6eafbe3c3a}, !- Surface Rendering Name
  {125d1c32-b678-4558-8fe7-27e5b93f4969}; !- Layer 1

OS:WindowMaterial:SimpleGlazingSystem,
  {125d1c32-b678-4558-8fe7-27e5b93f4969}, !- Handle
  Front-Win,                              !- Name
  1.98076528277124,                       !- U-Factor {W/m2-K}
  0.309130645437316;                      !- Solar Heat Gain Coefficient

OS:Surface,
  {078f3b6b-c273-4757-9096-2f5ef62fc6e6}, !- Handle
  Wall157,                                !- Name
  Wall,                                   !- Surface Type
  {7c8d7d9c-0dcd-4ac7-b33e-bff6ae01a53d}, !- Construction Name
  {0c1ff0a7-0064-4537-97fd-d02fb87909d7}, !- Space Name
  Outdoors,                               !- Outside Boundary Condition
  ,                                       !- Outside Boundary Condition Object
  SunExposed,                             !- Sun Exposure
  WindExposed,                            !- Wind Exposure
  ,                                       !- View Factor to Ground
  ,                                       !- Number of Vertices
  0, 0, 2.4384,                           !- X,Y,Z Vertex 1 {m}
  0, 0, 0,                                !- X,Y,Z Vertex 2 {m}
  8.2296, 0, 0,                           !- X,Y,Z Vertex 3 {m}
  8.2296, 0, 2.4384;                      !- X,Y,Z Vertex 4 {m}

OS:Construction,
  {7c8d7d9c-0dcd-4ac7-b33e-bff6ae01a53d}, !- Handle
  ExtInsFinWall,                          !- Name
  {71c54a70-238d-40b6-9d7f-43cc1975a433}, !- Surface Rendering Name
  {f329c735-c221-4284-87db-785d3b0842de}, !- Layer 1
  {69382e2e-0a14-4a7a-8e0a-9c4c69a57c76}, !- Layer 2
  {02c84b41-8384-468f-a457-6f11e6eec107}; !- Layer 3

OS:Material,
  {f329c735-c221-4284-87db-785d3b0842de}, !- Handle
  ExteriorFinish,                         !- Name
  Rough,                                  !- Roughness
  0.0254,                                 !- Thickness {m}
  0.649125,                               !- Conductivity {W/m-K}
  1281.6,                                 !- Density {kg/m3}
  879.27,                                 !- Specific Heat {J/kg-K}
  0.9,                                    !- Thermal Absorptance
  0.75,                                   !- Solar Absorptance
  0.75;                                   !- Visible Absorptance

OS:Material,
  {69382e2e-0a14-4a7a-8e0a-9c4c69a57c76}, !- Handle
  StudandCavity,                          !- Name
  Rough,                                  !- Roughness
  0.0889,                                 !- Thickness {m}
  0.0553845876584766,                     !- Conductivity {W/m-K}
  162.40275,                              !- Density {kg/m3}
  1178.91670776819;                       !- Specific Heat {J/kg-K}

OS:Material,
  {02c84b41-8384-468f-a457-6f11e6eec107}, !- Handle
  ExtWallMass,                            !- Name
  Rough,                                  !- Roughness
  0.0127,                                 !- Thickness {m}
  0.1602906,                              !- Conductivity {W/m-K}
  801,                                    !- Density {kg/m3}
  837.4,                                  !- Specific Heat {J/kg-K}
  0.9,                                    !- Thermal Absorptance
  0.5,                                    !- Solar Absorptance
  0.1;                                    !- Visible Absorptance

OS:ThermalZone,
  {65bfff1d-5ea8-4cff-b604-0da11e281b61}, !- Handle
  living_45 Thermal Zone,                 !- Name
  1,                                      !- Multiplier
  2.4384,                                 !- Ceiling Height {m}
  146.794534848,                          !- Volume {m3}
  ,                                       !- Floor Area {m2}
  ,                                       !- Zone Inside Convection Algorithm
  ,                                       !- Zone Outside Convection Algorithm
  ,                                       !- Zone Conditioning Equipment List Name
  {dfdeeade-d770-482f-960b-d8f3807df381}, !- Zone Air Inlet Port List
  {cda26e53-f42c-4c58-a6d8-67a989768c8b}, !- Zone Air Exhaust Port List
  {d880e869-650c-4fdd-a0c7-53e2f6fdea52}, !- Zone Air Node Name
  ,                                       !- Zone Return Air Node Name
  ,                                       !- Primary Daylighting Control Name
  ,                                       !- Fraction of Zone Controlled by Primary Daylighting Control
  ,                                       !- Secondary Daylighting Control Name
  ,                                       !- Fraction of Zone Controlled by Secondary Daylighting Control
  ,                                       !- Illuminance Map Name
  {08f2c285-0a7f-4a7d-8adc-5ed35004e67f}, !- Group Rendering Name
  ,                                       !- Thermostat Name
  No;                                     !- Use Ideal Air Loads

OS:Node,
  {a6a1c788-8467-42c2-8c2e-91dca39a40ad}, !- Handle
  {d0697981-eb0a-46ae-a5a1-cfa9fdb90f14}, !- Name
  {d880e869-650c-4fdd-a0c7-53e2f6fdea52}, !- Inlet Port
  ;                                       !- Outlet Port

OS:Connection,
  {d880e869-650c-4fdd-a0c7-53e2f6fdea52}, !- Handle
  {8ec13a9e-d720-4e05-adae-cc9359ab0d18}, !- Name
  {65bfff1d-5ea8-4cff-b604-0da11e281b61}, !- Source Object
  11,                                     !- Outlet Port
  {a6a1c788-8467-42c2-8c2e-91dca39a40ad}, !- Target Object
  2;                                      !- Inlet Port

OS:PortList,
  {dfdeeade-d770-482f-960b-d8f3807df381}, !- Handle
  {3edbac58-8f9d-49b3-98a5-e1d2aeaec880}, !- Name
  {65bfff1d-5ea8-4cff-b604-0da11e281b61}; !- HVAC Component

OS:PortList,
  {cda26e53-f42c-4c58-a6d8-67a989768c8b}, !- Handle
  {19325766-4293-44dd-a69a-9c9f6a9aa46c}, !- Name
  {65bfff1d-5ea8-4cff-b604-0da11e281b61}; !- HVAC Component

OS:Sizing:Zone,
  {4c375d74-1694-4713-9b2d-06d41ca5ce3d}, !- Handle
  {65bfff1d-5ea8-4cff-b604-0da11e281b61}, !- Zone or ZoneList Name
  14,                                     !- Zone Cooling Design Supply Air Temperature {C}
  40,                                     !- Zone Heating Design Supply Air Temperature {C}
  0.0085,                                 !- Zone Cooling Design Supply Air Humidity Ratio {kg-H2O/kg-air}
  0.008,                                  !- Zone Heating Design Supply Air Humidity Ratio {kg-H2O/kg-air}
  ,                                       !- Zone Heating Sizing Factor
  ,                                       !- Zone Cooling Sizing Factor
  DesignDay,                              !- Cooling Design Air Flow Method
  ,                                       !- Cooling Design Air Flow Rate {m3/s}
  ,                                       !- Cooling Minimum Air Flow per Zone Floor Area {m3/s-m2}
  ,                                       !- Cooling Minimum Air Flow {m3/s}
  ,                                       !- Cooling Minimum Air Flow Fraction
  DesignDay,                              !- Heating Design Air Flow Method
  ,                                       !- Heating Design Air Flow Rate {m3/s}
  ,                                       !- Heating Maximum Air Flow per Zone Floor Area {m3/s-m2}
  ,                                       !- Heating Maximum Air Flow {m3/s}
  ,                                       !- Heating Maximum Air Flow Fraction
  ,                                       !- Design Zone Air Distribution Effectiveness in Cooling Mode
  ;                                       !- Design Zone Air Distribution Effectiveness in Heating Mode

OS:ZoneHVAC:EquipmentList,
  {944ad192-d1cc-4f34-b556-e38602344999}, !- Handle
  {972e6000-b45c-4c7a-9833-2fe3bb409045}, !- Name
  {65bfff1d-5ea8-4cff-b604-0da11e281b61}; !- Thermal Zone

OS:Space,
  {0c1ff0a7-0064-4537-97fd-d02fb87909d7}, !- Handle
  living_45,                              !- Name
  {f1ef3b33-bb4f-41c8-83de-a21606c67319}, !- Space Type Name
  ,                                       !- Default Construction Set Name
  ,                                       !- Default Schedule Set Name
  0,                                      !- Direction of Relative North {deg}
  12.3444,                                !- X Origin {m}
  -8.0772,                                !- Y Origin {m}
  9.7536,                                 !- Z Origin {m}
  ,                                       !- Building Story Name
  {65bfff1d-5ea8-4cff-b604-0da11e281b61}, !- Thermal Zone Name
  ,                                       !- Part of Total Floor Area
  ;                                       !- Design Specification Outdoor Air Object Name

OS:Surface,
  {f5bfd2fd-9482-471e-831e-8de291df394f}, !- Handle
  Wall99,                                 !- Name
  Wall,                                   !- Surface Type
  {0502b35c-36ca-4bef-b20c-3c1203fd331e}, !- Construction Name
  {56e7a616-feec-46be-9572-337a3f2d8b76}, !- Space Name
  Adiabatic,                              !- Outside Boundary Condition
  ,                                       !- Outside Boundary Condition Object
  NoSun,                                  !- Sun Exposure
  NoWind,                                 !- Wind Exposure
  0,                                      !- View Factor to Ground
  ,                                       !- Number of Vertices
  8.2296, 0, 2.4384,                      !- X,Y,Z Vertex 1 {m}
  8.2296, 0, 0,                           !- X,Y,Z Vertex 2 {m}
  8.2296, 7.3152, 0,                      !- X,Y,Z Vertex 3 {m}
  8.2296, 7.3152, 2.4384;                 !- X,Y,Z Vertex 4 {m}

OS:Construction,
  {0502b35c-36ca-4bef-b20c-3c1203fd331e}, !- Handle
  FinUninsFinWall,                        !- Name
  {fb59bb22-964f-4f8c-a823-8b3ad162285d}, !- Surface Rendering Name
  {7572063b-fde9-40a4-935c-2b7788a56a81}, !- Layer 1
  {08c8088f-1d76-489e-9b45-8133eb57d27b}, !- Layer 2
  {7572063b-fde9-40a4-935c-2b7788a56a81}; !- Layer 3

OS:Material,
  {7572063b-fde9-40a4-935c-2b7788a56a81}, !- Handle
  PartitionWallMass,                      !- Name
  Rough,                                  !- Roughness
  0.0127,                                 !- Thickness {m}
  0.1602906,                              !- Conductivity {W/m-K}
  801,                                    !- Density {kg/m3}
  837.4,                                  !- Specific Heat {J/kg-K}
  0.9,                                    !- Thermal Absorptance
  0.5,                                    !- Solar Absorptance
  0.1;                                    !- Visible Absorptance

OS:Material,
  {08c8088f-1d76-489e-9b45-8133eb57d27b}, !- Handle
  StudandAirWall,                         !- Name
  Rough,                                  !- Roughness
  0.0889,                                 !- Thickness {m}
  0.442568232,                            !- Conductivity {W/m-K}
  49.1135592608281,                       !- Density {kg/m3}
  1209.73912956475;                       !- Specific Heat {J/kg-K}

OS:ThermalZone,
  {2c4af0a6-5f54-439f-821f-b26b73098291}, !- Handle
  living_31 Thermal Zone,                 !- Name
  1,                                      !- Multiplier
  2.4384,                                 !- Ceiling Height {m}
  146.794534848,                          !- Volume {m3}
  ,                                       !- Floor Area {m2}
  ,                                       !- Zone Inside Convection Algorithm
  ,                                       !- Zone Outside Convection Algorithm
  ,                                       !- Zone Conditioning Equipment List Name
  {5b24dedc-22c8-44d5-ae55-739d2ac723c0}, !- Zone Air Inlet Port List
  {79caf210-03f2-4543-91a0-b1d750151f28}, !- Zone Air Exhaust Port List
  {a0ba2c16-9ca6-46ec-8e61-c4c96de2a9a5}, !- Zone Air Node Name
  ,                                       !- Zone Return Air Node Name
  ,                                       !- Primary Daylighting Control Name
  ,                                       !- Fraction of Zone Controlled by Primary Daylighting Control
  ,                                       !- Secondary Daylighting Control Name
  ,                                       !- Fraction of Zone Controlled by Secondary Daylighting Control
  ,                                       !- Illuminance Map Name
  {8c0f9865-bb62-479f-b717-6e72a85e6aaa}, !- Group Rendering Name
  ,                                       !- Thermostat Name
  No;                                     !- Use Ideal Air Loads

OS:Node,
  {baafadad-9d2a-46d6-b15f-fed9de9cd54b}, !- Handle
  {d309ba90-95aa-420d-92b4-b1e1be2b0c38}, !- Name
  {a0ba2c16-9ca6-46ec-8e61-c4c96de2a9a5}, !- Inlet Port
  ;                                       !- Outlet Port

OS:Connection,
  {a0ba2c16-9ca6-46ec-8e61-c4c96de2a9a5}, !- Handle
  {4133d67f-ccdc-4e78-b683-428aa0031491}, !- Name
  {2c4af0a6-5f54-439f-821f-b26b73098291}, !- Source Object
  11,                                     !- Outlet Port
  {baafadad-9d2a-46d6-b15f-fed9de9cd54b}, !- Target Object
  2;                                      !- Inlet Port

OS:PortList,
  {5b24dedc-22c8-44d5-ae55-739d2ac723c0}, !- Handle
  {b4ff6334-31fa-44f6-9537-4f37511a5a6c}, !- Name
  {2c4af0a6-5f54-439f-821f-b26b73098291}; !- HVAC Component

OS:PortList,
  {79caf210-03f2-4543-91a0-b1d750151f28}, !- Handle
  {d850078e-33cf-41a4-bc6a-2ab91595c87e}, !- Name
  {2c4af0a6-5f54-439f-821f-b26b73098291}; !- HVAC Component

OS:Sizing:Zone,
  {4074b078-c043-41e3-bee0-5ba67eef74bf}, !- Handle
  {2c4af0a6-5f54-439f-821f-b26b73098291}, !- Zone or ZoneList Name
  14,                                     !- Zone Cooling Design Supply Air Temperature {C}
  40,                                     !- Zone Heating Design Supply Air Temperature {C}
  0.0085,                                 !- Zone Cooling Design Supply Air Humidity Ratio {kg-H2O/kg-air}
  0.008,                                  !- Zone Heating Design Supply Air Humidity Ratio {kg-H2O/kg-air}
  ,                                       !- Zone Heating Sizing Factor
  ,                                       !- Zone Cooling Sizing Factor
  DesignDay,                              !- Cooling Design Air Flow Method
  ,                                       !- Cooling Design Air Flow Rate {m3/s}
  ,                                       !- Cooling Minimum Air Flow per Zone Floor Area {m3/s-m2}
  ,                                       !- Cooling Minimum Air Flow {m3/s}
  ,                                       !- Cooling Minimum Air Flow Fraction
  DesignDay,                              !- Heating Design Air Flow Method
  ,                                       !- Heating Design Air Flow Rate {m3/s}
  ,                                       !- Heating Maximum Air Flow per Zone Floor Area {m3/s-m2}
  ,                                       !- Heating Maximum Air Flow {m3/s}
  ,                                       !- Heating Maximum Air Flow Fraction
  ,                                       !- Design Zone Air Distribution Effectiveness in Cooling Mode
  ;                                       !- Design Zone Air Distribution Effectiveness in Heating Mode

OS:ZoneHVAC:EquipmentList,
  {b3f7ccd8-2e92-4a34-90d9-dcd9f433eef3}, !- Handle
  {30ffc081-cabb-405c-a7af-e944af4c1537}, !- Name
  {2c4af0a6-5f54-439f-821f-b26b73098291}; !- Thermal Zone

OS:Space,
  {56e7a616-feec-46be-9572-337a3f2d8b76}, !- Handle
  living_31,                            !- Name
  {f1ef3b33-bb4f-41c8-83de-a21606c67319}, !- Space Type Name
  ,                                       !- Default Construction Set Name
  ,                                       !- Default Schedule Set Name
  0,                                      !- Direction of Relative North {deg}
  -20.574,                                !- X Origin {m}
  -8.0772,                                !- Y Origin {m}
  7.3152,                                 !- Z Origin {m}
  ,                                       !- Building Story Name
  {2c4af0a6-5f54-439f-821f-b26b73098291}, !- Thermal Zone Name
  ,                                       !- Part of Total Floor Area
  ;                                       !- Design Specification Outdoor Air Object Name

OS:ThermalZone,
  {6476887f-15af-4d83-b854-e0d9e7ea9d97}, !- Handle
  living_32 Thermal Zone,                 !- Name
  1,                                      !- Multiplier
  2.4384,                                 !- Ceiling Height {m}
  146.794534848,                          !- Volume {m3}
  ,                                       !- Floor Area {m2}
  ,                                       !- Zone Inside Convection Algorithm
  ,                                       !- Zone Outside Convection Algorithm
  ,                                       !- Zone Conditioning Equipment List Name
  {b7370c55-c33b-4da6-9fbe-66fe20c89e05}, !- Zone Air Inlet Port List
  {0bb93ea5-9c54-48fe-be85-0fba4b7be28b}, !- Zone Air Exhaust Port List
  {f782888c-111b-4b69-ad90-0de16535663c}, !- Zone Air Node Name
  ,                                       !- Zone Return Air Node Name
  ,                                       !- Primary Daylighting Control Name
  ,                                       !- Fraction of Zone Controlled by Primary Daylighting Control
  ,                                       !- Secondary Daylighting Control Name
  ,                                       !- Fraction of Zone Controlled by Secondary Daylighting Control
  ,                                       !- Illuminance Map Name
  {d22845d4-922a-4f2d-a652-3c7bedd841ee}, !- Group Rendering Name
  ,                                       !- Thermostat Name
  No;                                     !- Use Ideal Air Loads

OS:Node,
  {baa8fd90-fdb3-4581-90c0-8e2ca14d3eed}, !- Handle
  {8b6ab2af-ea83-4ae3-be93-91b8d177ce75}, !- Name
  {f782888c-111b-4b69-ad90-0de16535663c}, !- Inlet Port
  ;                                       !- Outlet Port

OS:Connection,
  {f782888c-111b-4b69-ad90-0de16535663c}, !- Handle
  {a535f558-52de-489b-9c50-5cfbe3a38fff}, !- Name
  {6476887f-15af-4d83-b854-e0d9e7ea9d97}, !- Source Object
  11,                                     !- Outlet Port
  {baa8fd90-fdb3-4581-90c0-8e2ca14d3eed}, !- Target Object
  2;                                      !- Inlet Port

OS:PortList,
  {b7370c55-c33b-4da6-9fbe-66fe20c89e05}, !- Handle
  {f832ef74-9285-405c-b234-e03da631ddff}, !- Name
  {6476887f-15af-4d83-b854-e0d9e7ea9d97}; !- HVAC Component

OS:PortList,
  {0bb93ea5-9c54-48fe-be85-0fba4b7be28b}, !- Handle
  {df116cf9-559b-4618-87c9-6e60431c6979}, !- Name