
OS:Version,
  {cafceae4-84be-4cd7-a3a1-7052f71212cd}, !- Handle
  1.3.1;                                  !- Version Identifier

OS:Construction,
  {cb04d360-af40-4b33-8746-d1f5e82f7f0b}, !- Handle
  ExtInsFinWall,                          !- Name
  ,                                       !- Surface Rendering Name
  {97dc3a0d-8dee-4df9-8d1a-ba6c08b470f0}, !- Layer 1
  {15647418-4004-4e8e-a81e-8ffdd9732023}, !- Layer 2
  {97e6bcc9-60f2-4506-9631-321d22b26d28}, !- Layer 3
  {2d63083b-5bf8-4673-878e-a7b7257c53f7}; !- Layer 4

OS:Material,
  {97dc3a0d-8dee-4df9-8d1a-ba6c08b470f0}, !- Handle
  Exterior_Finish_Vinyl_Light,            !- Name
  Rough,                                  !- Roughness
  0.009525,                               !- Thickness {m}
  0.089435,                               !- Conductivity {W/m-K}
  177.822,                                !- Density {kg/m3}
  1046.75,                                !- Specific Heat {J/kg-K}
  0.9,                                    !- Thermal Absorptance
  0.3,                                    !- Solar Absorptance
  0.3;                                    !- Visible Absorptance

OS:Material,
  {2d63083b-5bf8-4673-878e-a7b7257c53f7}, !- Handle
  GypsumBoard_1_2in,                      !- Name
  Rough,                                  !- Roughness
  0.0127,                                 !- Thickness {m}
  0.1602906,                              !- Conductivity {W/m-K}
  801,                                    !- Density {kg/m3}
  837.4;                                  !- Specific Heat {J/kg-K}

OS:Material,
  {15647418-4004-4e8e-a81e-8ffdd9732023}, !- Handle
  CMU,                                    !- Name
  Rough,                                  !- Roughness
  0.3048,                                 !- Thickness {m}
  0.671158298181782,                      !- Conductivity {W/m-K}
  764.28216,                              !- Density {kg/m3}
  856.609578267795;                       !- Specific Heat {J/kg-K}

OS:Material,
  {97e6bcc9-60f2-4506-9631-321d22b26d28}, !- Handle
  Furring,                                !- Name
  Rough,                                  !- Roughness
  0.0254,                                 !- Thickness {m}
  0.14026226645,                          !- Conductivity {W/m-K}
  110.3341455,                            !- Density {kg/m3}
  1154.52431712832;                       !- Specific Heat {J/kg-K}

