
OS:Version,
  {19d2589d-6c96-4603-9e3b-bb6cdde206bf}, !- Handle
  1.13.0;                                 !- Version Identifier

OS:Building,
  {bf305633-c5a1-4881-9edf-ca5e1a8e1274}, !- Handle
  Building,                               !- Name
  ,                                       !- Building Sector Type
  ,                                       !- North Axis {deg}
  ,                                       !- Nominal Floor to Floor Height {m}
  ,                                       !- Space Type Name
  ,                                       !- Default Construction Set Name
  ,                                       !- Default Schedule Set Name
  ,                                       !- Standards Number of Stories
  ,                                       !- Standards Number of Above Ground Stories
  ,                                       !- Standards Building Type
  1;                                      !- Standards Number of Living Units

OS:SimulationControl,
  {2c487a4c-bac9-4ac5-b669-1e49d9da7c2b}, !- Handle
  ,                                       !- Do Zone Sizing Calculation
  ,                                       !- Do System Sizing Calculation
  ,                                       !- Do Plant Sizing Calculation
  No,                                     !- Run Simulation for Sizing Periods
  ;                                       !- Run Simulation for Weather File Run Periods

OS:Timestep,
  {4ebc9f1e-4707-402e-9844-67eb1ffbd522}, !- Handle
  6;                                      !- Number of Timesteps per Hour

OS:RunPeriod,
  {28df894d-6af9-4fb8-8f56-df1753344aa3}, !- Handle
  Run Period,                             !- Name
  1,                                      !- Begin Month
  1,                                      !- Begin Day of Month
  12,                                     !- End Month
  31,                                     !- End Day of Month
  ,                                       !- Use Weather File Holidays and Special Days
  ,                                       !- Use Weather File Daylight Saving Period
  ,                                       !- Apply Weekend Holiday Rule
  ,                                       !- Use Weather File Rain Indicators
  ,                                       !- Use Weather File Snow Indicators
  ;                                       !- Number of Times Runperiod to be Repeated

OS:Sizing:Parameters,
  {dde5af6f-7923-4600-a28a-7556673a0266}, !- Handle
  1.0,                                    !- Heating Sizing Factor
  1.0;                                    !- Cooling Sizing Factor

OS:ShadowCalculation,
  {ca758bea-4416-4626-9bba-3d8795c79bd6}, !- Handle
  20,                                     !- Calculation Frequency
  200;                                    !- Maximum Figures in Shadow Overlap Calculations

OS:SurfaceConvectionAlgorithm:Inside,
  {aaabfc36-718a-4ab0-b622-f186ebb45230}, !- Handle
  TARP;                                   !- Algorithm

OS:SurfaceConvectionAlgorithm:Outside,
  {9a0a9f6f-4bbd-4b12-a121-9492a1fcd7d6}, !- Handle
  DOE-2;                                  !- Algorithm

OS:HeatBalanceAlgorithm,
  {9d93e563-e1e0-46d7-9e39-d1c8aceb7212}, !- Handle
  ConductionTransferFunction,             !- Algorithm
  200;                                    !- Surface Temperature Upper Limit {C}

OS:ZoneCapacitanceMultiplier:ResearchSpecial,
  {6bfced16-b16f-47f6-8223-f7e267d75d19}, !- Handle
  ,                                       !- Temperature Capacity Multiplier
  15,                                     !- Humidity Capacity Multiplier
  ;                                       !- Carbon Dioxide Capacity Multiplier

OS:ThermalZone,
  {2df6787d-913e-4369-865c-899e39d62552}, !- Handle
  living zone,                            !- Name
  ,                                       !- Multiplier
  ,                                       !- Ceiling Height {m}
  ,                                       !- Volume {m3}
  ,                                       !- Floor Area {m2}
  ,                                       !- Zone Inside Convection Algorithm
  ,                                       !- Zone Outside Convection Algorithm
  ,                                       !- Zone Conditioning Equipment List Name
  {d465c68f-3f11-402f-ab5a-63d9c0482c08}, !- Zone Air Inlet Port List
  {b276ca21-cd1e-4310-b3ce-a7e671534ee1}, !- Zone Air Exhaust Port List
  {26299705-dfca-4bbe-a2f7-89877b845ca1}, !- Zone Air Node Name
  ,                                       !- Zone Return Air Node Name
  ,                                       !- Primary Daylighting Control Name
  ,                                       !- Fraction of Zone Controlled by Primary Daylighting Control
  ,                                       !- Secondary Daylighting Control Name
  ,                                       !- Fraction of Zone Controlled by Secondary Daylighting Control
  ,                                       !- Illuminance Map Name
  ,                                       !- Group Rendering Name
  ,                                       !- Thermostat Name
  No;                                     !- Use Ideal Air Loads

OS:Node,
  {f7eb0e83-9966-4c64-8d0b-223546d34c77}, !- Handle
  Node 1,                                 !- Name
  {26299705-dfca-4bbe-a2f7-89877b845ca1}, !- Inlet Port
  ;                                       !- Outlet Port

OS:Connection,
  {26299705-dfca-4bbe-a2f7-89877b845ca1}, !- Handle
  {103faed5-9c09-4bff-929a-d88c7114ca4a}, !- Name
  {2df6787d-913e-4369-865c-899e39d62552}, !- Source Object
  11,                                     !- Outlet Port
  {f7eb0e83-9966-4c64-8d0b-223546d34c77}, !- Target Object
  2;                                      !- Inlet Port

OS:PortList,
  {d465c68f-3f11-402f-ab5a-63d9c0482c08}, !- Handle
  Port List 1,                            !- Name
  {2df6787d-913e-4369-865c-899e39d62552}; !- HVAC Component

OS:PortList,
  {b276ca21-cd1e-4310-b3ce-a7e671534ee1}, !- Handle
  Port List 2,                            !- Name
  {2df6787d-913e-4369-865c-899e39d62552}; !- HVAC Component

OS:Sizing:Zone,
  {b246e158-d1e5-4b58-a402-4034c34e5c40}, !- Handle
  {2df6787d-913e-4369-865c-899e39d62552}, !- Zone or ZoneList Name
  SupplyAirTemperature,                   !- Zone Cooling Design Supply Air Temperature Input Method
  14,                                     !- Zone Cooling Design Supply Air Temperature {C}
  11.11,                                  !- Zone Cooling Design Supply Air Temperature Difference {deltaC}
  SupplyAirTemperature,                   !- Zone Heating Design Supply Air Temperature Input Method
  40,                                     !- Zone Heating Design Supply Air Temperature {C}
  11.11,                                  !- Zone Heating Design Supply Air Temperature Difference {deltaC}
  0.0085,                                 !- Zone Cooling Design Supply Air Humidity Ratio {kg-H2O/kg-air}
  0.008,                                  !- Zone Heating Design Supply Air Humidity Ratio {kg-H2O/kg-air}
  ,                                       !- Zone Heating Sizing Factor
  ,                                       !- Zone Cooling Sizing Factor
  DesignDay,                              !- Cooling Design Air Flow Method
  ,                                       !- Cooling Design Air Flow Rate {m3/s}
  ,                                       !- Cooling Minimum Air Flow per Zone Floor Area {m3/s-m2}
  ,                                       !- Cooling Minimum Air Flow {m3/s}
  ,                                       !- Cooling Minimum Air Flow Fraction
  DesignDay,                              !- Heating Design Air Flow Method
  ,                                       !- Heating Design Air Flow Rate {m3/s}
  ,                                       !- Heating Maximum Air Flow per Zone Floor Area {m3/s-m2}
  ,                                       !- Heating Maximum Air Flow {m3/s}
  ,                                       !- Heating Maximum Air Flow Fraction
  ,                                       !- Design Zone Air Distribution Effectiveness in Cooling Mode
  ,                                       !- Design Zone Air Distribution Effectiveness in Heating Mode
  No,                                     !- Account for Dedicated Outdoor Air System
  NeutralSupplyAir,                       !- Dedicated Outdoor Air System Control Strategy
  autosize,                               !- Dedicated Outdoor Air Low Setpoint Temperature for Design {C}
  autosize;                               !- Dedicated Outdoor Air High Setpoint Temperature for Design {C}

OS:ZoneHVAC:EquipmentList,
  {21c7e75b-7add-458e-bf3c-ad763e5a99f6}, !- Handle
  Zone HVAC Equipment List 1,             !- Name
  {2df6787d-913e-4369-865c-899e39d62552}; !- Thermal Zone

OS:Space,
  {d8a39607-7e0e-44ab-99e7-d0b414f508bd}, !- Handle
  living space,                           !- Name
  ,                                       !- Space Type Name
  ,                                       !- Default Construction Set Name
  ,                                       !- Default Schedule Set Name
  -0,                                     !- Direction of Relative North {deg}
  0,                                      !- X Origin {m}
  0,                                      !- Y Origin {m}
  0,                                      !- Z Origin {m}
  ,                                       !- Building Story Name
  {2df6787d-913e-4369-865c-899e39d62552}; !- Thermal Zone Name

OS:Surface,
  {428d421f-cbcf-4d60-9e08-72d10f2aa6c7}, !- Handle
  Surface 1,                              !- Name
  Floor,                                  !- Surface Type
  ,                                       !- Construction Name
  {d8a39607-7e0e-44ab-99e7-d0b414f508bd}, !- Space Name
  Ground,                                 !- Outside Boundary Condition
  ,                                       !- Outside Boundary Condition Object
  NoSun,                                  !- Sun Exposure
  NoWind,                                 !- Wind Exposure
  ,                                       !- View Factor to Ground
  ,                                       !- Number of Vertices
  0, 0, 0,                                !- X,Y,Z Vertex 1 {m}
  0, 6.81553519541936, 0,                 !- X,Y,Z Vertex 2 {m}
  13.6310703908387, 6.81553519541936, 0,  !- X,Y,Z Vertex 3 {m}
  13.6310703908387, 0, 0;                 !- X,Y,Z Vertex 4 {m}

OS:Surface,
  {1538aae2-7109-4fce-97ac-31b279fbbc84}, !- Handle
  Surface 2,                              !- Name
  Wall,                                   !- Surface Type
  {01ca130a-743e-4fed-8e24-036d9c514671}, !- Construction Name
  {d8a39607-7e0e-44ab-99e7-d0b414f508bd}, !- Space Name
  Outdoors,                               !- Outside Boundary Condition
  ,                                       !- Outside Boundary Condition Object
  SunExposed,                             !- Sun Exposure
  WindExposed,                            !- Wind Exposure
  ,                                       !- View Factor to Ground
  ,                                       !- Number of Vertices
  0, 6.81553519541936, 2.4384,            !- X,Y,Z Vertex 1 {m}
  0, 6.81553519541936, 0,                 !- X,Y,Z Vertex 2 {m}
  0, 0, 0,                                !- X,Y,Z Vertex 3 {m}
  0, 0, 2.4384;                           !- X,Y,Z Vertex 4 {m}

OS:Surface,
  {893acc15-0ffd-4a91-b6fd-812180b9c210}, !- Handle
  Surface 3,                              !- Name
  Wall,                                   !- Surface Type
  {01ca130a-743e-4fed-8e24-036d9c514671}, !- Construction Name
  {d8a39607-7e0e-44ab-99e7-d0b414f508bd}, !- Space Name
  Outdoors,                               !- Outside Boundary Condition
  ,                                       !- Outside Boundary Condition Object
  SunExposed,                             !- Sun Exposure
  WindExposed,                            !- Wind Exposure
  ,                                       !- View Factor to Ground
  ,                                       !- Number of Vertices
  13.6310703908387, 6.81553519541936, 2.4384, !- X,Y,Z Vertex 1 {m}
  13.6310703908387, 6.81553519541936, 0,  !- X,Y,Z Vertex 2 {m}
  0, 6.81553519541936, 0,                 !- X,Y,Z Vertex 3 {m}
  0, 6.81553519541936, 2.4384;            !- X,Y,Z Vertex 4 {m}

OS:Surface,
  {c83f7fd2-04c8-479c-9ea0-737b37f7afd9}, !- Handle
  Surface 4,                              !- Name
  Wall,                                   !- Surface Type
  {01ca130a-743e-4fed-8e24-036d9c514671}, !- Construction Name
  {d8a39607-7e0e-44ab-99e7-d0b414f508bd}, !- Space Name
  Outdoors,                               !- Outside Boundary Condition
  ,                                       !- Outside Boundary Condition Object
  SunExposed,                             !- Sun Exposure
  WindExposed,                            !- Wind Exposure
  ,                                       !- View Factor to Ground
  ,                                       !- Number of Vertices
  13.6310703908387, 0, 2.4384,            !- X,Y,Z Vertex 1 {m}
  13.6310703908387, 0, 0,                 !- X,Y,Z Vertex 2 {m}
  13.6310703908387, 6.81553519541936, 0,  !- X,Y,Z Vertex 3 {m}
  13.6310703908387, 6.81553519541936, 2.4384; !- X,Y,Z Vertex 4 {m}

OS:Surface,
  {04fe416c-51e8-4aeb-bbad-bc2403a7776c}, !- Handle
  Surface 5,                              !- Name
  Wall,                                   !- Surface Type
  {01ca130a-743e-4fed-8e24-036d9c514671}, !- Construction Name
  {d8a39607-7e0e-44ab-99e7-d0b414f508bd}, !- Space Name
  Outdoors,                               !- Outside Boundary Condition
  ,                                       !- Outside Boundary Condition Object
  SunExposed,                             !- Sun Exposure
  WindExposed,                            !- Wind Exposure
  ,                                       !- View Factor to Ground
  ,                                       !- Number of Vertices
  0, 0, 2.4384,                           !- X,Y,Z Vertex 1 {m}
  0, 0, 0,                                !- X,Y,Z Vertex 2 {m}
  13.6310703908387, 0, 0,                 !- X,Y,Z Vertex 3 {m}
  13.6310703908387, 0, 2.4384;            !- X,Y,Z Vertex 4 {m}

OS:Surface,
  {8eb3a905-9872-4907-8cd2-a53bff92ce66}, !- Handle
  Surface 6,                              !- Name
  RoofCeiling,                            !- Surface Type
  {320edfb5-48a0-48fc-8099-74cda2b1e3c9}, !- Construction Name
  {d8a39607-7e0e-44ab-99e7-d0b414f508bd}, !- Space Name
  Surface,                                !- Outside Boundary Condition
  {4f528e6b-c855-431e-b74d-b488071111bf}, !- Outside Boundary Condition Object
  NoSun,                                  !- Sun Exposure
  NoWind,                                 !- Wind Exposure
  ,                                       !- View Factor to Ground
  ,                                       !- Number of Vertices
  13.6310703908387, 0, 2.4384,            !- X,Y,Z Vertex 1 {m}
  13.6310703908387, 6.81553519541936, 2.4384, !- X,Y,Z Vertex 2 {m}
  0, 6.81553519541936, 2.4384,            !- X,Y,Z Vertex 3 {m}
  0, 0, 2.4384;                           !- X,Y,Z Vertex 4 {m}

OS:Space,
  {f25875a3-acaa-457d-a8ed-0bfe0fc5f866}, !- Handle
  living space|story 2,                   !- Name
  ,                                       !- Space Type Name
  ,                                       !- Default Construction Set Name
  ,                                       !- Default Schedule Set Name
  -0,                                     !- Direction of Relative North {deg}
  0,                                      !- X Origin {m}
  0,                                      !- Y Origin {m}
  2.4384,                                 !- Z Origin {m}
  ,                                       !- Building Story Name
  {2df6787d-913e-4369-865c-899e39d62552}; !- Thermal Zone Name

OS:Surface,
  {4f528e6b-c855-431e-b74d-b488071111bf}, !- Handle
  Surface 7,                              !- Name
  Floor,                                  !- Surface Type
  {320edfb5-48a0-48fc-8099-74cda2b1e3c9}, !- Construction Name
  {f25875a3-acaa-457d-a8ed-0bfe0fc5f866}, !- Space Name
  Surface,                                !- Outside Boundary Condition
  {8eb3a905-9872-4907-8cd2-a53bff92ce66}, !- Outside Boundary Condition Object
  NoSun,                                  !- Sun Exposure
  NoWind,                                 !- Wind Exposure
  ,                                       !- View Factor to Ground
  ,                                       !- Number of Vertices
  0, 0, 0,                                !- X,Y,Z Vertex 1 {m}
  0, 6.81553519541936, 0,                 !- X,Y,Z Vertex 2 {m}
  13.6310703908387, 6.81553519541936, 0,  !- X,Y,Z Vertex 3 {m}
  13.6310703908387, 0, 0;                 !- X,Y,Z Vertex 4 {m}

OS:Surface,
  {1621927f-bcab-4f31-a7e0-fc3933a752cc}, !- Handle
  Surface 8,                              !- Name
  Wall,                                   !- Surface Type
  {01ca130a-743e-4fed-8e24-036d9c514671}, !- Construction Name
  {f25875a3-acaa-457d-a8ed-0bfe0fc5f866}, !- Space Name
  Outdoors,                               !- Outside Boundary Condition
  ,                                       !- Outside Boundary Condition Object
  SunExposed,                             !- Sun Exposure
  WindExposed,                            !- Wind Exposure
  ,                                       !- View Factor to Ground
  ,                                       !- Number of Vertices
  0, 6.81553519541936, 2.4384,            !- X,Y,Z Vertex 1 {m}
  0, 6.81553519541936, 0,                 !- X,Y,Z Vertex 2 {m}
  0, 0, 0,                                !- X,Y,Z Vertex 3 {m}
  0, 0, 2.4384;                           !- X,Y,Z Vertex 4 {m}

OS:Surface,
  {f95c58fc-2a3f-40c1-96e6-42b6f0141aa4}, !- Handle
  Surface 9,                              !- Name
  Wall,                                   !- Surface Type
  {01ca130a-743e-4fed-8e24-036d9c514671}, !- Construction Name
  {f25875a3-acaa-457d-a8ed-0bfe0fc5f866}, !- Space Name
  Outdoors,                               !- Outside Boundary Condition
  ,                                       !- Outside Boundary Condition Object
  SunExposed,                             !- Sun Exposure
  WindExposed,                            !- Wind Exposure
  ,                                       !- View Factor to Ground
  ,                                       !- Number of Vertices
  13.6310703908387, 6.81553519541936, 2.4384, !- X,Y,Z Vertex 1 {m}
  13.6310703908387, 6.81553519541936, 0,  !- X,Y,Z Vertex 2 {m}
  0, 6.81553519541936, 0,                 !- X,Y,Z Vertex 3 {m}
  0, 6.81553519541936, 2.4384;            !- X,Y,Z Vertex 4 {m}

OS:Surface,
  {e3b67bbb-bd02-4cbd-8c73-b61d4a38a01f}, !- Handle
  Surface 10,                             !- Name
  Wall,                                   !- Surface Type
  {01ca130a-743e-4fed-8e24-036d9c514671}, !- Construction Name
  {f25875a3-acaa-457d-a8ed-0bfe0fc5f866}, !- Space Name
  Outdoors,                               !- Outside Boundary Condition
  ,                                       !- Outside Boundary Condition Object
  SunExposed,                             !- Sun Exposure
  WindExposed,                            !- Wind Exposure
  ,                                       !- View Factor to Ground
  ,                                       !- Number of Vertices
  13.6310703908387, 0, 2.4384,            !- X,Y,Z Vertex 1 {m}
  13.6310703908387, 0, 0,                 !- X,Y,Z Vertex 2 {m}
  13.6310703908387, 6.81553519541936, 0,  !- X,Y,Z Vertex 3 {m}
  13.6310703908387, 6.81553519541936, 2.4384; !- X,Y,Z Vertex 4 {m}

OS:Surface,
  {2b6ee14a-4726-4a33-a199-4c3e2947761d}, !- Handle
  Surface 11,                             !- Name
  Wall,                                   !- Surface Type
  {01ca130a-743e-4fed-8e24-036d9c514671}, !- Construction Name
  {f25875a3-acaa-457d-a8ed-0bfe0fc5f866}, !- Space Name
  Outdoors,                               !- Outside Boundary Condition
  ,                                       !- Outside Boundary Condition Object
  SunExposed,                             !- Sun Exposure
  WindExposed,                            !- Wind Exposure
  ,                                       !- View Factor to Ground
  ,                                       !- Number of Vertices
  0, 0, 2.4384,                           !- X,Y,Z Vertex 1 {m}
  0, 0, 0,                                !- X,Y,Z Vertex 2 {m}
  13.6310703908387, 0, 0,                 !- X,Y,Z Vertex 3 {m}
  13.6310703908387, 0, 2.4384;            !- X,Y,Z Vertex 4 {m}

OS:Surface,
  {33d65d5e-ce9e-425d-9444-8368c2b08a38}, !- Handle
  Surface 12,                             !- Name
  RoofCeiling,                            !- Surface Type
  ,                                       !- Construction Name
  {f25875a3-acaa-457d-a8ed-0bfe0fc5f866}, !- Space Name
  Surface,                                !- Outside Boundary Condition
  {a569e13c-eab3-403d-be0e-53b6417e7258}, !- Outside Boundary Condition Object
  NoSun,                                  !- Sun Exposure
  NoWind,                                 !- Wind Exposure
  ,                                       !- View Factor to Ground
  ,                                       !- Number of Vertices
  13.6310703908387, 0, 2.4384,            !- X,Y,Z Vertex 1 {m}
  13.6310703908387, 6.81553519541936, 2.4384, !- X,Y,Z Vertex 2 {m}
  0, 6.81553519541936, 2.4384,            !- X,Y,Z Vertex 3 {m}
  0, 0, 2.4384;                           !- X,Y,Z Vertex 4 {m}

OS:Surface,
  {a569e13c-eab3-403d-be0e-53b6417e7258}, !- Handle
  Surface 13,                             !- Name
  Floor,                                  !- Surface Type
  ,                                       !- Construction Name
  {7e1f0dbc-eba1-4872-a638-9a8bf83b506f}, !- Space Name
  Surface,                                !- Outside Boundary Condition
  {33d65d5e-ce9e-425d-9444-8368c2b08a38}, !- Outside Boundary Condition Object
  NoSun,                                  !- Sun Exposure
  NoWind,                                 !- Wind Exposure
  ,                                       !- View Factor to Ground
  ,                                       !- Number of Vertices
  0, 6.81553519541936, 0,                 !- X,Y,Z Vertex 1 {m}
  13.6310703908387, 6.81553519541936, 0,  !- X,Y,Z Vertex 2 {m}
  13.6310703908387, 0, 0,                 !- X,Y,Z Vertex 3 {m}
  0, 0, 0;                                !- X,Y,Z Vertex 4 {m}

OS:Surface,
  {c53af72d-7882-4e40-b371-a6648f5327b2}, !- Handle
  Surface 14,                             !- Name
  RoofCeiling,                            !- Surface Type
  ,                                       !- Construction Name
  {7e1f0dbc-eba1-4872-a638-9a8bf83b506f}, !- Space Name
  Outdoors,                               !- Outside Boundary Condition
  ,                                       !- Outside Boundary Condition Object
  SunExposed,                             !- Sun Exposure
  WindExposed,                            !- Wind Exposure
  ,                                       !- View Factor to Ground
  ,                                       !- Number of Vertices
  13.6310703908387, 3.40776759770968, 1.70388379885484, !- X,Y,Z Vertex 1 {m}
  0, 3.40776759770968, 1.70388379885484,  !- X,Y,Z Vertex 2 {m}
  0, 0, 0,                                !- X,Y,Z Vertex 3 {m}
  13.6310703908387, 0, 0;                 !- X,Y,Z Vertex 4 {m}

OS:Surface,
  {7deb15d9-9e0d-46d7-b715-2a9c2fac5491}, !- Handle
  Surface 15,                             !- Name
  RoofCeiling,                            !- Surface Type
  ,                                       !- Construction Name
  {7e1f0dbc-eba1-4872-a638-9a8bf83b506f}, !- Space Name
  Outdoors,                               !- Outside Boundary Condition
  ,                                       !- Outside Boundary Condition Object
  SunExposed,                             !- Sun Exposure
  WindExposed,                            !- Wind Exposure
  ,                                       !- View Factor to Ground
  ,                                       !- Number of Vertices
  0, 3.40776759770968, 1.70388379885484,  !- X,Y,Z Vertex 1 {m}
  13.6310703908387, 3.40776759770968, 1.70388379885484, !- X,Y,Z Vertex 2 {m}
  13.6310703908387, 6.81553519541936, 0,  !- X,Y,Z Vertex 3 {m}
  0, 6.81553519541936, 0;                 !- X,Y,Z Vertex 4 {m}

OS:Surface,
  {7749e2d0-d496-4300-b08c-2e6fccf2df56}, !- Handle
  Surface 16,                             !- Name
  Wall,                                   !- Surface Type
  {8085d92e-ce00-47eb-9f97-c80813de37c0}, !- Construction Name
  {7e1f0dbc-eba1-4872-a638-9a8bf83b506f}, !- Space Name
  Outdoors,                               !- Outside Boundary Condition
  ,                                       !- Outside Boundary Condition Object
  SunExposed,                             !- Sun Exposure
  WindExposed,                            !- Wind Exposure
  ,                                       !- View Factor to Ground
  ,                                       !- Number of Vertices
  0, 3.40776759770968, 1.70388379885484,  !- X,Y,Z Vertex 1 {m}
  0, 6.81553519541936, 0,                 !- X,Y,Z Vertex 2 {m}
  0, 0, 0;                                !- X,Y,Z Vertex 3 {m}

OS:Surface,
  {d00cad2f-7c67-4405-8e83-921d62c67780}, !- Handle
  Surface 17,                             !- Name
  Wall,                                   !- Surface Type
  {8085d92e-ce00-47eb-9f97-c80813de37c0}, !- Construction Name
  {7e1f0dbc-eba1-4872-a638-9a8bf83b506f}, !- Space Name
  Outdoors,                               !- Outside Boundary Condition
  ,                                       !- Outside Boundary Condition Object
  SunExposed,                             !- Sun Exposure
  WindExposed,                            !- Wind Exposure
  ,                                       !- View Factor to Ground
  ,                                       !- Number of Vertices
  13.6310703908387, 3.40776759770968, 1.70388379885484, !- X,Y,Z Vertex 1 {m}
  13.6310703908387, 0, 0,                 !- X,Y,Z Vertex 2 {m}
  13.6310703908387, 6.81553519541936, 0;  !- X,Y,Z Vertex 3 {m}

OS:Space,
  {7e1f0dbc-eba1-4872-a638-9a8bf83b506f}, !- Handle
  unfinished attic,                       !- Name
  ,                                       !- Space Type Name
  ,                                       !- Default Construction Set Name
  ,                                       !- Default Schedule Set Name
  -0,                                     !- Direction of Relative North {deg}
  0,                                      !- X Origin {m}
  0,                                      !- Y Origin {m}
  4.8768,                                 !- Z Origin {m}
  ,                                       !- Building Story Name
  {818ff731-53b9-48ff-b655-7d9cdf767f6d}; !- Thermal Zone Name

OS:ThermalZone,
  {818ff731-53b9-48ff-b655-7d9cdf767f6d}, !- Handle
  unfinished attic zone,                  !- Name
  ,                                       !- Multiplier
  ,                                       !- Ceiling Height {m}
  ,                                       !- Volume {m3}
  ,                                       !- Floor Area {m2}
  ,                                       !- Zone Inside Convection Algorithm
  ,                                       !- Zone Outside Convection Algorithm
  ,                                       !- Zone Conditioning Equipment List Name
  {2453ff11-66d0-412c-beca-89b9d587d45d}, !- Zone Air Inlet Port List
  {bf5161d1-b3bc-469a-add3-6191046f48a9}, !- Zone Air Exhaust Port List
  {8c4f3840-afd7-43c1-92a3-41681a253017}, !- Zone Air Node Name
  ,                                       !- Zone Return Air Node Name
  ,                                       !- Primary Daylighting Control Name
  ,                                       !- Fraction of Zone Controlled by Primary Daylighting Control
  ,                                       !- Secondary Daylighting Control Name
  ,                                       !- Fraction of Zone Controlled by Secondary Daylighting Control
  ,                                       !- Illuminance Map Name
  ,                                       !- Group Rendering Name
  ,                                       !- Thermostat Name
  No;                                     !- Use Ideal Air Loads

OS:Node,
  {c38d1a5d-7a0f-4987-8f86-c07550ea0605}, !- Handle
  Node 2,                                 !- Name
  {8c4f3840-afd7-43c1-92a3-41681a253017}, !- Inlet Port
  ;                                       !- Outlet Port

OS:Connection,
  {8c4f3840-afd7-43c1-92a3-41681a253017}, !- Handle
  {32fd5556-4134-49b7-83ee-a28e909deef4}, !- Name
  {818ff731-53b9-48ff-b655-7d9cdf767f6d}, !- Source Object
  11,                                     !- Outlet Port
  {c38d1a5d-7a0f-4987-8f86-c07550ea0605}, !- Target Object
  2;                                      !- Inlet Port

OS:PortList,
  {2453ff11-66d0-412c-beca-89b9d587d45d}, !- Handle
  Port List 3,                            !- Name
  {818ff731-53b9-48ff-b655-7d9cdf767f6d}; !- HVAC Component

OS:PortList,
  {bf5161d1-b3bc-469a-add3-6191046f48a9}, !- Handle
  Port List 4,                            !- Name
  {818ff731-53b9-48ff-b655-7d9cdf767f6d}; !- HVAC Component

OS:Sizing:Zone,
  {07c3409c-f7a1-41e0-b9ca-5f2feaec022b}, !- Handle
  {818ff731-53b9-48ff-b655-7d9cdf767f6d}, !- Zone or ZoneList Name
  SupplyAirTemperature,                   !- Zone Cooling Design Supply Air Temperature Input Method
  14,                                     !- Zone Cooling Design Supply Air Temperature {C}
  11.11,                                  !- Zone Cooling Design Supply Air Temperature Difference {deltaC}
  SupplyAirTemperature,                   !- Zone Heating Design Supply Air Temperature Input Method