!- NOTE: Auto-generated from /test/osw_files/SFD_2000sqft_2story_SL_UA_AllLayersButWallInsulation_CeilingIns.osw

OS:Version,
  {002c2c2d-d60b-47d1-9c8a-9dd82189918b}, !- Handle
  2.1.0;                                  !- Version Identifier

OS:Building,
  {bf305633-c5a1-4881-9edf-ca5e1a8e1274}, !- Handle
  Building,                               !- Name
  ,                                       !- Building Sector Type
  ,                                       !- North Axis {deg}
  ,                                       !- Nominal Floor to Floor Height {m}
  ,                                       !- Space Type Name
  ,                                       !- Default Construction Set Name
  ,                                       !- Default Schedule Set Name
  2,                                      !- Standards Number of Stories
  2,                                      !- Standards Number of Above Ground Stories
  singlefamilydetached,                   !- Standards Building Type
  1;                                      !- Standards Number of Living Units

OS:YearDescription,
  {513d8dda-86cb-442a-b01c-1f7f0e0ac70e}; !- Handle

OS:SimulationControl,
  {2c487a4c-bac9-4ac5-b669-1e49d9da7c2b}, !- Handle
  ,                                       !- Do Zone Sizing Calculation
  ,                                       !- Do System Sizing Calculation
  ,                                       !- Do Plant Sizing Calculation
  No,                                     !- Run Simulation for Sizing Periods
  ;                                       !- Run Simulation for Weather File Run Periods

OS:Timestep,
  {4ebc9f1e-4707-402e-9844-67eb1ffbd522}, !- Handle
  6;                                      !- Number of Timesteps per Hour

OS:RunPeriod,
  {28df894d-6af9-4fb8-8f56-df1753344aa3}, !- Handle
  Run Period,                             !- Name
  1,                                      !- Begin Month
  1,                                      !- Begin Day of Month
  12,                                     !- End Month
  31,                                     !- End Day of Month
  ,                                       !- Use Weather File Holidays and Special Days
  ,                                       !- Use Weather File Daylight Saving Period
  ,                                       !- Apply Weekend Holiday Rule
  ,                                       !- Use Weather File Rain Indicators
  ,                                       !- Use Weather File Snow Indicators
  ;                                       !- Number of Times Runperiod to be Repeated

OS:Sizing:Parameters,
  {dde5af6f-7923-4600-a28a-7556673a0266}, !- Handle
  1.0,                                    !- Heating Sizing Factor
  1.0;                                    !- Cooling Sizing Factor

OS:ShadowCalculation,
  {ca758bea-4416-4626-9bba-3d8795c79bd6}, !- Handle
  20,                                     !- Calculation Frequency
  200;                                    !- Maximum Figures in Shadow Overlap Calculations

OS:SurfaceConvectionAlgorithm:Inside,
  {aaabfc36-718a-4ab0-b622-f186ebb45230}, !- Handle
  TARP;                                   !- Algorithm

OS:SurfaceConvectionAlgorithm:Outside,
  {9a0a9f6f-4bbd-4b12-a121-9492a1fcd7d6}, !- Handle
  DOE-2;                                  !- Algorithm

OS:HeatBalanceAlgorithm,
  {9d93e563-e1e0-46d7-9e39-d1c8aceb7212}, !- Handle
  ConductionTransferFunction,             !- Algorithm
  200;                                    !- Surface Temperature Upper Limit {C}

OS:ZoneCapacitanceMultiplier:ResearchSpecial,
  {6bfced16-b16f-47f6-8223-f7e267d75d19}, !- Handle
  ,                                       !- Temperature Capacity Multiplier
  15,                                     !- Humidity Capacity Multiplier
  ;                                       !- Carbon Dioxide Capacity Multiplier

OS:ThermalZone,
  {2ad7623f-90ab-4fb8-beac-1fc590f5fb11}, !- Handle
  living zone,                            !- Name
  ,                                       !- Multiplier
  ,                                       !- Ceiling Height {m}
  ,                                       !- Volume {m3}
  ,                                       !- Floor Area {m2}
  ,                                       !- Zone Inside Convection Algorithm
  ,                                       !- Zone Outside Convection Algorithm
  ,                                       !- Zone Conditioning Equipment List Name
  {f6037c09-2a0f-4f00-b399-6d231f84566d}, !- Zone Air Inlet Port List
  {d787959b-c38d-42eb-821c-f79d1722dc75}, !- Zone Air Exhaust Port List
  {713ed1a4-0bad-4f85-89d8-bbce8121cd55}, !- Zone Air Node Name
  ,                                       !- Zone Return Air Node Name
  ,                                       !- Primary Daylighting Control Name
  ,                                       !- Fraction of Zone Controlled by Primary Daylighting Control
  ,                                       !- Secondary Daylighting Control Name
  ,                                       !- Fraction of Zone Controlled by Secondary Daylighting Control
  ,                                       !- Illuminance Map Name
  ,                                       !- Group Rendering Name
  ,                                       !- Thermostat Name
  No;                                     !- Use Ideal Air Loads

OS:Node,
  {05cd3ae4-fa1a-4501-aa49-9e2bb254b943}, !- Handle
  Node 1,                                 !- Name
  {713ed1a4-0bad-4f85-89d8-bbce8121cd55}, !- Inlet Port
  ;                                       !- Outlet Port

OS:Connection,
  {713ed1a4-0bad-4f85-89d8-bbce8121cd55}, !- Handle
  {1d1250be-6a21-4c3f-a190-e9b6ad742144}, !- Name
  {2ad7623f-90ab-4fb8-beac-1fc590f5fb11}, !- Source Object
  11,                                     !- Outlet Port
  {05cd3ae4-fa1a-4501-aa49-9e2bb254b943}, !- Target Object
  2;                                      !- Inlet Port

OS:PortList,
  {f6037c09-2a0f-4f00-b399-6d231f84566d}, !- Handle
  Port List 1,                            !- Name
  {2ad7623f-90ab-4fb8-beac-1fc590f5fb11}; !- HVAC Component

OS:PortList,
  {d787959b-c38d-42eb-821c-f79d1722dc75}, !- Handle
  Port List 2,                            !- Name
  {2ad7623f-90ab-4fb8-beac-1fc590f5fb11}; !- HVAC Component

OS:Sizing:Zone,
  {286e332a-71dc-4df3-93e8-f313211919dd}, !- Handle
  {2ad7623f-90ab-4fb8-beac-1fc590f5fb11}, !- Zone or ZoneList Name
  SupplyAirTemperature,                   !- Zone Cooling Design Supply Air Temperature Input Method
  14,                                     !- Zone Cooling Design Supply Air Temperature {C}
  11.11,                                  !- Zone Cooling Design Supply Air Temperature Difference {deltaC}
  SupplyAirTemperature,                   !- Zone Heating Design Supply Air Temperature Input Method
  40,                                     !- Zone Heating Design Supply Air Temperature {C}
  11.11,                                  !- Zone Heating Design Supply Air Temperature Difference {deltaC}
  0.0085,                                 !- Zone Cooling Design Supply Air Humidity Ratio {kg-H2O/kg-air}
  0.008,                                  !- Zone Heating Design Supply Air Humidity Ratio {kg-H2O/kg-air}
  ,                                       !- Zone Heating Sizing Factor
  ,                                       !- Zone Cooling Sizing Factor
  DesignDay,                              !- Cooling Design Air Flow Method
  ,                                       !- Cooling Design Air Flow Rate {m3/s}
  ,                                       !- Cooling Minimum Air Flow per Zone Floor Area {m3/s-m2}
  ,                                       !- Cooling Minimum Air Flow {m3/s}
  ,                                       !- Cooling Minimum Air Flow Fraction
  DesignDay,                              !- Heating Design Air Flow Method
  ,                                       !- Heating Design Air Flow Rate {m3/s}
  ,                                       !- Heating Maximum Air Flow per Zone Floor Area {m3/s-m2}
  ,                                       !- Heating Maximum Air Flow {m3/s}
  ,                                       !- Heating Maximum Air Flow Fraction
  ,                                       !- Design Zone Air Distribution Effectiveness in Cooling Mode
  ,                                       !- Design Zone Air Distribution Effectiveness in Heating Mode
  No,                                     !- Account for Dedicated Outdoor Air System
  NeutralSupplyAir,                       !- Dedicated Outdoor Air System Control Strategy
  autosize,                               !- Dedicated Outdoor Air Low Setpoint Temperature for Design {C}
  autosize;                               !- Dedicated Outdoor Air High Setpoint Temperature for Design {C}

OS:ZoneHVAC:EquipmentList,
  {573ff538-c242-4377-8545-6d7bb393d980}, !- Handle
  Zone HVAC Equipment List 1,             !- Name
  {2ad7623f-90ab-4fb8-beac-1fc590f5fb11}; !- Thermal Zone

OS:Space,
  {4fcb17ff-67bc-4a05-92b0-d7689b963dc2}, !- Handle
  living space,                           !- Name
  ,                                       !- Space Type Name
  ,                                       !- Default Construction Set Name
  ,                                       !- Default Schedule Set Name
  -0,                                     !- Direction of Relative North {deg}
  0,                                      !- X Origin {m}
  0,                                      !- Y Origin {m}
  0,                                      !- Z Origin {m}
  ,                                       !- Building Story Name
  {2ad7623f-90ab-4fb8-beac-1fc590f5fb11}, !- Thermal Zone Name
  ,                                       !- Part of Total Floor Area
  ,                                       !- Design Specification Outdoor Air Object Name
  {1971014e-ad60-412b-a6b0-d3ec914fe056}; !- Building Unit Name

OS:Surface,
  {d8a51359-199e-4b9a-b77a-8c35ea97c2df}, !- Handle
  Surface 1,                              !- Name
  Floor,                                  !- Surface Type
  ,                                       !- Construction Name
  {4fcb17ff-67bc-4a05-92b0-d7689b963dc2}, !- Space Name
  Ground,                                 !- Outside Boundary Condition
  ,                                       !- Outside Boundary Condition Object
  NoSun,                                  !- Sun Exposure
  NoWind,                                 !- Wind Exposure
  ,                                       !- View Factor to Ground
  ,                                       !- Number of Vertices
  0, 0, 0,                                !- X,Y,Z Vertex 1 {m}
  0, 6.81553519541936, 0,                 !- X,Y,Z Vertex 2 {m}
  13.6310703908387, 6.81553519541936, 0,  !- X,Y,Z Vertex 3 {m}
  13.6310703908387, 0, 0;                 !- X,Y,Z Vertex 4 {m}

OS:Surface,
  {c05f66f8-d93f-443a-908e-bce24a8c127e}, !- Handle
  Surface 2,                              !- Name
  Wall,                                   !- Surface Type
  {94ccca96-490f-4667-8980-cb4e0a2c8a36}, !- Construction Name
  {4fcb17ff-67bc-4a05-92b0-d7689b963dc2}, !- Space Name
  Outdoors,                               !- Outside Boundary Condition
  ,                                       !- Outside Boundary Condition Object
  SunExposed,                             !- Sun Exposure
  WindExposed,                            !- Wind Exposure
  ,                                       !- View Factor to Ground
  ,                                       !- Number of Vertices
  0, 6.81553519541936, 2.4384,            !- X,Y,Z Vertex 1 {m}
  0, 6.81553519541936, 0,                 !- X,Y,Z Vertex 2 {m}
  0, 0, 0,                                !- X,Y,Z Vertex 3 {m}
  0, 0, 2.4384;                           !- X,Y,Z Vertex 4 {m}

OS:Surface,
  {2ad7aeb9-0ddd-46c3-b7fe-7e5881adf8cb}, !- Handle
  Surface 3,                              !- Name
  Wall,                                   !- Surface Type
  {94ccca96-490f-4667-8980-cb4e0a2c8a36}, !- Construction Name
  {4fcb17ff-67bc-4a05-92b0-d7689b963dc2}, !- Space Name
  Outdoors,                               !- Outside Boundary Condition
  ,                                       !- Outside Boundary Condition Object
  SunExposed,                             !- Sun Exposure
  WindExposed,                            !- Wind Exposure
  ,                                       !- View Factor to Ground
  ,                                       !- Number of Vertices
  13.6310703908387, 6.81553519541936, 2.4384, !- X,Y,Z Vertex 1 {m}
  13.6310703908387, 6.81553519541936, 0,  !- X,Y,Z Vertex 2 {m}
  0, 6.81553519541936, 0,                 !- X,Y,Z Vertex 3 {m}
  0, 6.81553519541936, 2.4384;            !- X,Y,Z Vertex 4 {m}

OS:Surface,
  {b69c6af4-6a1b-43c3-8d5c-0d014090125c}, !- Handle
  Surface 4,                              !- Name
  Wall,                                   !- Surface Type
  {94ccca96-490f-4667-8980-cb4e0a2c8a36}, !- Construction Name
  {4fcb17ff-67bc-4a05-92b0-d7689b963dc2}, !- Space Name
  Outdoors,                               !- Outside Boundary Condition
  ,                                       !- Outside Boundary Condition Object
  SunExposed,                             !- Sun Exposure
  WindExposed,                            !- Wind Exposure
  ,                                       !- View Factor to Ground
  ,                                       !- Number of Vertices
  13.6310703908387, 0, 2.4384,            !- X,Y,Z Vertex 1 {m}
  13.6310703908387, 0, 0,                 !- X,Y,Z Vertex 2 {m}
  13.6310703908387, 6.81553519541936, 0,  !- X,Y,Z Vertex 3 {m}
  13.6310703908387, 6.81553519541936, 2.4384; !- X,Y,Z Vertex 4 {m}

OS:Surface,
  {cf89cd4b-1db4-4ec3-9044-f2fcf4779529}, !- Handle
  Surface 5,                              !- Name
  Wall,                                   !- Surface Type
  {94ccca96-490f-4667-8980-cb4e0a2c8a36}, !- Construction Name
  {4fcb17ff-67bc-4a05-92b0-d7689b963dc2}, !- Space Name
  Outdoors,                               !- Outside Boundary Condition
  ,                                       !- Outside Boundary Condition Object
  SunExposed,                             !- Sun Exposure
  WindExposed,                            !- Wind Exposure
  ,                                       !- View Factor to Ground
  ,                                       !- Number of Vertices
  0, 0, 2.4384,                           !- X,Y,Z Vertex 1 {m}
  0, 0, 0,                                !- X,Y,Z Vertex 2 {m}
  13.6310703908387, 0, 0,                 !- X,Y,Z Vertex 3 {m}
  13.6310703908387, 0, 2.4384;            !- X,Y,Z Vertex 4 {m}

OS:Surface,
  {6d084cf4-5a81-4693-abcf-00d7cb21bb1f}, !- Handle
  Surface 6,                              !- Name
  RoofCeiling,                            !- Surface Type
  ,                                       !- Construction Name
  {4fcb17ff-67bc-4a05-92b0-d7689b963dc2}, !- Space Name
  Surface,                                !- Outside Boundary Condition
  {7c6a9951-e6f2-4579-8916-aea7350a316b}, !- Outside Boundary Condition Object
  NoSun,                                  !- Sun Exposure
  NoWind,                                 !- Wind Exposure
  ,                                       !- View Factor to Ground
  ,                                       !- Number of Vertices
  13.6310703908387, 0, 2.4384,            !- X,Y,Z Vertex 1 {m}
  13.6310703908387, 6.81553519541936, 2.4384, !- X,Y,Z Vertex 2 {m}
  0, 6.81553519541936, 2.4384,            !- X,Y,Z Vertex 3 {m}
  0, 0, 2.4384;                           !- X,Y,Z Vertex 4 {m}

OS:Space,
  {795e00dd-ec96-487e-997d-61592c7710fc}, !- Handle
  living space|story 2,                   !- Name
  ,                                       !- Space Type Name
  ,                                       !- Default Construction Set Name
  ,                                       !- Default Schedule Set Name
  -0,                                     !- Direction of Relative North {deg}
  0,                                      !- X Origin {m}
  0,                                      !- Y Origin {m}
  2.4384,                                 !- Z Origin {m}
  ,                                       !- Building Story Name
  {2ad7623f-90ab-4fb8-beac-1fc590f5fb11}, !- Thermal Zone Name
  ,                                       !- Part of Total Floor Area
  ,                                       !- Design Specification Outdoor Air Object Name
  {1971014e-ad60-412b-a6b0-d3ec914fe056}; !- Building Unit Name

OS:Surface,
  {7c6a9951-e6f2-4579-8916-aea7350a316b}, !- Handle
  Surface 7,                              !- Name
  Floor,                                  !- Surface Type
  ,                                       !- Construction Name
  {795e00dd-ec96-487e-997d-61592c7710fc}, !- Space Name
  Surface,                                !- Outside Boundary Condition
  {6d084cf4-5a81-4693-abcf-00d7cb21bb1f}, !- Outside Boundary Condition Object
  NoSun,                                  !- Sun Exposure
  NoWind,                                 !- Wind Exposure
  ,                                       !- View Factor to Ground
  ,                                       !- Number of Vertices
  0, 0, 0,                                !- X,Y,Z Vertex 1 {m}
  0, 6.81553519541936, 0,                 !- X,Y,Z Vertex 2 {m}
  13.6310703908387, 6.81553519541936, 0,  !- X,Y,Z Vertex 3 {m}
  13.6310703908387, 0, 0;                 !- X,Y,Z Vertex 4 {m}

OS:Surface,
  {ef41af0a-c94a-4d7b-bd7c-cf7f78ebb5bd}, !- Handle
  Surface 8,                              !- Name
  Wall,                                   !- Surface Type
  {94ccca96-490f-4667-8980-cb4e0a2c8a36}, !- Construction Name
  {795e00dd-ec96-487e-997d-61592c7710fc}, !- Space Name
  Outdoors,                               !- Outside Boundary Condition
  ,                                       !- Outside Boundary Condition Object
  SunExposed,                             !- Sun Exposure
  WindExposed,                            !- Wind Exposure
  ,                                       !- View Factor to Ground
  ,                                       !- Number of Vertices
  0, 6.81553519541936, 2.4384,            !- X,Y,Z Vertex 1 {m}
  0, 6.81553519541936, 0,                 !- X,Y,Z Vertex 2 {m}
  0, 0, 0,                                !- X,Y,Z Vertex 3 {m}
  0, 0, 2.4384;                           !- X,Y,Z Vertex 4 {m}

OS:Surface,
  {fed38d56-39c3-456f-b32d-6d2f09d3e96b}, !- Handle
  Surface 9,                              !- Name
  Wall,                                   !- Surface Type
  {94ccca96-490f-4667-8980-cb4e0a2c8a36}, !- Construction Name
  {795e00dd-ec96-487e-997d-61592c7710fc}, !- Space Name
  Outdoors,                               !- Outside Boundary Condition
  ,                                       !- Outside Boundary Condition Object
  SunExposed,                             !- Sun Exposure
  WindExposed,                            !- Wind Exposure
  ,                                       !- View Factor to Ground
  ,                                       !- Number of Vertices
  13.6310703908387, 6.81553519541936, 2.4384, !- X,Y,Z Vertex 1 {m}
  13.6310703908387, 6.81553519541936, 0,  !- X,Y,Z Vertex 2 {m}
  0, 6.81553519541936, 0,                 !- X,Y,Z Vertex 3 {m}
  0, 6.81553519541936, 2.4384;            !- X,Y,Z Vertex 4 {m}

OS:Surface,
  {452dd335-1757-4c78-850c-2a12ebca6242}, !- Handle
  Surface 10,                             !- Name
  Wall,                                   !- Surface Type
  {94ccca96-490f-4667-8980-cb4e0a2c8a36}, !- Construction Name
  {795e00dd-ec96-487e-997d-61592c7710fc}, !- Space Name
  Outdoors,                               !- Outside Boundary Condition
  ,                                       !- Outside Boundary Condition Object
  SunExposed,                             !- Sun Exposure
  WindExposed,                            !- Wind Exposure
  ,                                       !- View Factor to Ground
  ,                                       !- Number of Vertices
  13.6310703908387, 0, 2.4384,            !- X,Y,Z Vertex 1 {m}
  13.6310703908387, 0, 0,                 !- X,Y,Z Vertex 2 {m}
  13.6310703908387, 6.81553519541936, 0,  !- X,Y,Z Vertex 3 {m}
  13.6310703908387, 6.81553519541936, 2.4384; !- X,Y,Z Vertex 4 {m}

OS:Surface,
  {a4a7492f-6fca-4f37-8273-74d478e4e695}, !- Handle
  Surface 11,                             !- Name
  Wall,                                   !- Surface Type
  {94ccca96-490f-4667-8980-cb4e0a2c8a36}, !- Construction Name
  {795e00dd-ec96-487e-997d-61592c7710fc}, !- Space Name
  Outdoors,                               !- Outside Boundary Condition
  ,                                       !- Outside Boundary Condition Object
  SunExposed,                             !- Sun Exposure
  WindExposed,                            !- Wind Exposure
  ,                                       !- View Factor to Ground
  ,                                       !- Number of Vertices
  0, 0, 2.4384,                           !- X,Y,Z Vertex 1 {m}
  0, 0, 0,                                !- X,Y,Z Vertex 2 {m}
  13.6310703908387, 0, 0,                 !- X,Y,Z Vertex 3 {m}
  13.6310703908387, 0, 2.4384;            !- X,Y,Z Vertex 4 {m}

OS:Surface,
  {357ee91b-6b06-467a-9b2e-65641870988c}, !- Handle
  Surface 12,                             !- Name
  RoofCeiling,                            !- Surface Type
  {ee3ca995-7a82-4823-b48a-1ceed5a34a06}, !- Construction Name
  {795e00dd-ec96-487e-997d-61592c7710fc}, !- Space Name
  Surface,                                !- Outside Boundary Condition
  {fd124b03-a156-45d6-bbc8-234d4b46e7df}, !- Outside Boundary Condition Object
  NoSun,                                  !- Sun Exposure
  NoWind,                                 !- Wind Exposure
  ,                                       !- View Factor to Ground
  ,                                       !- Number of Vertices
  13.6310703908387, 0, 2.4384,            !- X,Y,Z Vertex 1 {m}
  13.6310703908387, 6.81553519541936, 2.4384, !- X,Y,Z Vertex 2 {m}
  0, 6.81553519541936, 2.4384,            !- X,Y,Z Vertex 3 {m}
  0, 0, 2.4384;                           !- X,Y,Z Vertex 4 {m}

OS:Surface,
  {fd124b03-a156-45d6-bbc8-234d4b46e7df}, !- Handle
  Surface 13,                             !- Name
  Floor,                                  !- Surface Type
  {a01dee34-3715-4a15-be6a-f6890ab8d00b}, !- Construction Name
  {732b2099-23c3-43c9-991e-9ac40adcb203}, !- Space Name
  Surface,                                !- Outside Boundary Condition
  {357ee91b-6b06-467a-9b2e-65641870988c}, !- Outside Boundary Condition Object
  NoSun,                                  !- Sun Exposure
  NoWind,                                 !- Wind Exposure
  ,                                       !- View Factor to Ground
  ,                                       !- Number of Vertices
  0, 6.81553519541936, 0,                 !- X,Y,Z Vertex 1 {m}
  13.6310703908387, 6.81553519541936, 0,  !- X,Y,Z Vertex 2 {m}
  13.6310703908387, 0, 0,                 !- X,Y,Z Vertex 3 {m}
  0, 0, 0;                                !- X,Y,Z Vertex 4 {m}

OS:Surface,
  {e3eb8ce9-f7d2-41e6-b135-783b8481ffae}, !- Handle
  Surface 14,                             !- Name
  RoofCeiling,                            !- Surface Type
  {0e684303-f218-4d49-b5de-55d9349a65a7}, !- Construction Name
  {732b2099-23c3-43c9-991e-9ac40adcb203}, !- Space Name
  Outdoors,                               !- Outside Boundary Condition
  ,                                       !- Outside Boundary Condition Object
  SunExposed,                             !- Sun Exposure
  WindExposed,                            !- Wind Exposure
  ,                                       !- View Factor to Ground
  ,                                       !- Number of Vertices
  13.6310703908387, 3.40776759770968, 1.70388379885484, !- X,Y,Z Vertex 1 {m}
  0, 3.40776759770968, 1.70388379885484,  !- X,Y,Z Vertex 2 {m}
  0, 0, 0,                                !- X,Y,Z Vertex 3 {m}
  13.6310703908387, 0, 0;                 !- X,Y,Z Vertex 4 {m}

OS:Surface,
  {e55184a3-bdf2-484d-b0ae-b460afa9de2e}, !- Handle
  Surface 15,                             !- Name
  RoofCeiling,                            !- Surface Type
  {0e684303-f218-4d49-b5de-55d9349a65a7}, !- Construction Name
  {732b2099-23c3-43c9-991e-9ac40adcb203}, !- Space Name
  Outdoors,                               !- Outside Boundary Condition
  ,                                       !- Outside Boundary Condition Object
  SunExposed,                             !- Sun Exposure
  WindExposed,                            !- Wind Exposure
  ,                                       !- View Factor to Ground
  ,                                       !- Number of Vertices
  0, 3.40776759770968, 1.70388379885484,  !- X,Y,Z Vertex 1 {m}
  13.6310703908387, 3.40776759770968, 1.70388379885484, !- X,Y,Z Vertex 2 {m}
  13.6310703908387, 6.81553519541936, 0,  !- X,Y,Z Vertex 3 {m}
  0, 6.81553519541936, 0;                 !- X,Y,Z Vertex 4 {m}

OS:Surface,
  {cb0e575d-e2c7-48f4-89d6-54e7fa6e303f}, !- Handle
  Surface 16,                             !- Name
  Wall,                                   !- Surface Type
  {dba64c4a-00e6-480e-b326-8164bbba0eef}, !- Construction Name
  {732b2099-23c3-43c9-991e-9ac40adcb203}, !- Space Name
  Outdoors,                               !- Outside Boundary Condition
  ,                                       !- Outside Boundary Condition Object
  SunExposed,                             !- Sun Exposure
  WindExposed,                            !- Wind Exposure
  ,                                       !- View Factor to Ground
  ,                                       !- Number of Vertices
  0, 3.40776759770968, 1.70388379885484,  !- X,Y,Z Vertex 1 {m}
  0, 6.81553519541936, 0,                 !- X,Y,Z Vertex 2 {m}
  0, 0, 0;                                !- X,Y,Z Vertex 3 {m}

OS:Surface,
  {ad5cfdf4-1cfd-45e6-a8e1-1571931b21c0}, !- Handle
  Surface 17,                             !- Name
  Wall,                                   !- Surface Type
  {dba64c4a-00e6-480e-b326-8164bbba0eef}, !- Construction Name
  {732b2099-23c3-43c9-991e-9ac40adcb203}, !- Space Name
  Outdoors,                               !- Outside Boundary Condition
  ,                                       !- Outside Boundary Condition Object
  SunExposed,                             !- Sun Exposure
  WindExposed,                            !- Wind Exposure
  ,                                       !- View Factor to Ground
  ,                                       !- Number of Vertices
  13.6310703908387, 3.40776759770968, 1.70388379885484, !- X,Y,Z Vertex 1 {m}
  13.6310703908387, 0, 0,                 !- X,Y,Z Vertex 2 {m}
  13.6310703908387, 6.81553519541936, 0;  !- X,Y,Z Vertex 3 {m}

OS:Space,
  {732b2099-23c3-43c9-991e-9ac40adcb203}, !- Handle
  unfinished attic space,                 !- Name
  ,                                       !- Space Type Name
  ,                                       !- Default Construction Set Name
  ,                                       !- Default Schedule Set Name
  -0,                                     !- Direction of Relative North {deg}
  0,                                      !- X Origin {m}
  0,                                      !- Y Origin {m}
  4.8768,                                 !- Z Origin {m}
  ,                                       !- Building Story Name
  {b0c8f3f9-2080-4ccb-95ac-a0d65ccb2448}, !- Thermal Zone Name
  ,                                       !- Part of Total Floor Area
  ,                                       !- Design Specification Outdoor Air Object Name
  {1971014e-ad60-412b-a6b0-d3ec914fe056}; !- Building Unit Name

OS:ThermalZone,
  {b0c8f3f9-2080-4ccb-95ac-a0d65ccb2448}, !- Handle
  unfinished attic zone,                  !- Name
  ,                                       !- Multiplier
  ,                                       !- Ceiling Height {m}
  ,                                       !- Volume {m3}
  ,                                       !- Floor Area {m2}
  ,                                       !- Zone Inside Convection Algorithm
  ,                                       !- Zone Outside Convection Algorithm
  ,                                       !- Zone Conditioning Equipment List Name
  {8976ab99-896e-4637-bc95-a7c4183462e1}, !- Zone Air Inlet Port List
  {f3d68dec-78dd-4c51-8fea-8a3fb1d61954}, !- Zone Air Exhaust Port List
  {d69e1bce-aecf-4cec-92c4-0d13d8845b8b}, !- Zone Air Node Name
  ,                                       !- Zone Return Air Node Name
  ,                                       !- Primary Daylighting Control Name
  ,                                       !- Fraction of Zone Controlled by Primary Daylighting Control
  ,                                       !- Secondary Daylighting Control Name
  ,                                       !- Fraction of Zone Controlled by Secondary Daylighting Control
  ,                                       !- Illuminance Map Name
  ,                                       !- Group Rendering Name
  ,                                       !- Thermostat Name
  No;                                     !- Use Ideal Air Loads

OS:Node,
  {3767986c-c79f-4569-b5a8-afb648fe3a45}, !- Handle
  Node 2,                                 !- Name
  {d69e1bce-aecf-4cec-92c4-0d13d8845b8b}, !- Inlet Port
  ;                                       !- Outlet Port

OS:Connection,
  {d69e1bce-aecf-4cec-92c4-0d13d8845b8b}, !- Handle
  {2a68ddf4-7a1a-4ba0-a2dc-c04a86013b6c}, !- Name
  {b0c8f3f9-2080-4ccb-95ac-a0d65ccb2448}, !- Source Object
  11,                                     !- Outlet Port
  {3767986c-c79f-4569-b5a8-afb648fe3a45}, !- Target Object
  2;                                      !- Inlet Port

OS:PortList,
  {8976ab99-896e-4637-bc95-a7c4183462e1}, !- Handle