
OS:Version,
  {f02f60d7-f396-43c3-9a10-67c9e787569a}, !- Handle
  1.12.5;                                 !- Version Identifier

OS:Building,
  {bf305633-c5a1-4881-9edf-ca5e1a8e1274}, !- Handle
  Building,                               !- Name
  ,                                       !- Building Sector Type
  ,                                       !- North Axis {deg}
  ,                                       !- Nominal Floor to Floor Height {m}
  ,                                       !- Space Type Name
  ,                                       !- Default Construction Set Name
  ,                                       !- Default Schedule Set Name
  ,                                       !- Standards Number of Stories
  ,                                       !- Standards Number of Above Ground Stories
  ,                                       !- Standards Building Type
  8;                                      !- Standards Number of Living Units

OS:SimulationControl,
  {2c487a4c-bac9-4ac5-b669-1e49d9da7c2b}, !- Handle
  ,                                       !- Do Zone Sizing Calculation
  ,                                       !- Do System Sizing Calculation
  ,                                       !- Do Plant Sizing Calculation
  No,                                     !- Run Simulation for Sizing Periods
  ;                                       !- Run Simulation for Weather File Run Periods

OS:Timestep,
  {4ebc9f1e-4707-402e-9844-67eb1ffbd522}, !- Handle
  6;                                      !- Number of Timesteps per Hour

OS:RunPeriod,
  {28df894d-6af9-4fb8-8f56-df1753344aa3}, !- Handle
  Run Period,                             !- Name
  1,                                      !- Begin Month
  1,                                      !- Begin Day of Month
  12,                                     !- End Month
  31,                                     !- End Day of Month
  ,                                       !- Use Weather File Holidays and Special Days
  ,                                       !- Use Weather File Daylight Saving Period
  ,                                       !- Apply Weekend Holiday Rule
  ,                                       !- Use Weather File Rain Indicators
  ,                                       !- Use Weather File Snow Indicators
  ;                                       !- Number of Times Runperiod to be Repeated

OS:Sizing:Parameters,
  {dde5af6f-7923-4600-a28a-7556673a0266}, !- Handle
  1.0,                                    !- Heating Sizing Factor
  1.0;                                    !- Cooling Sizing Factor

OS:ShadowCalculation,
  {ca758bea-4416-4626-9bba-3d8795c79bd6}, !- Handle
  20,                                     !- Calculation Frequency
  200;                                    !- Maximum Figures in Shadow Overlap Calculations

OS:SurfaceConvectionAlgorithm:Inside,
  {aaabfc36-718a-4ab0-b622-f186ebb45230}, !- Handle
  TARP;                                   !- Algorithm

OS:SurfaceConvectionAlgorithm:Outside,
  {9a0a9f6f-4bbd-4b12-a121-9492a1fcd7d6}, !- Handle
  DOE-2;                                  !- Algorithm

OS:HeatBalanceAlgorithm,
  {9d93e563-e1e0-46d7-9e39-d1c8aceb7212}, !- Handle
  ConductionTransferFunction,             !- Algorithm
  200;                                    !- Surface Temperature Upper Limit {C}

OS:ZoneCapacitanceMultiplier:ResearchSpecial,
  {6bfced16-b16f-47f6-8223-f7e267d75d19}, !- Handle
  ,                                       !- Temperature Capacity Multiplier
  15,                                     !- Humidity Capacity Multiplier
  ;                                       !- Carbon Dioxide Capacity Multiplier

OS:ThermalZone,
  {ed740bb2-0486-4df5-8355-7ea97b33f464}, !- Handle
  living zone,                            !- Name
  ,                                       !- Multiplier
  ,                                       !- Ceiling Height {m}
  ,                                       !- Volume {m3}
  ,                                       !- Floor Area {m2}
  ,                                       !- Zone Inside Convection Algorithm
  ,                                       !- Zone Outside Convection Algorithm
  ,                                       !- Zone Conditioning Equipment List Name
  {841b9138-9c63-4a0b-ad69-e2ec7bc161cc}, !- Zone Air Inlet Port List
  {2ff65fe5-b990-4b8f-b5e1-4fa4d2963a34}, !- Zone Air Exhaust Port List
  {1d389c57-8f91-40b0-97c1-323686336222}, !- Zone Air Node Name
  ,                                       !- Zone Return Air Node Name
  ,                                       !- Primary Daylighting Control Name
  ,                                       !- Fraction of Zone Controlled by Primary Daylighting Control
  ,                                       !- Secondary Daylighting Control Name
  ,                                       !- Fraction of Zone Controlled by Secondary Daylighting Control
  ,                                       !- Illuminance Map Name
  ,                                       !- Group Rendering Name
  ,                                       !- Thermostat Name
  No;                                     !- Use Ideal Air Loads

OS:Node,
  {30a8636b-6e56-4d18-a025-8734f89dc8bd}, !- Handle
  Node 1,                                 !- Name
  {1d389c57-8f91-40b0-97c1-323686336222}, !- Inlet Port
  ;                                       !- Outlet Port

OS:Connection,
  {1d389c57-8f91-40b0-97c1-323686336222}, !- Handle
  {4233bc80-de8e-42d8-850b-977fe6f1089e}, !- Name
  {ed740bb2-0486-4df5-8355-7ea97b33f464}, !- Source Object
  11,                                     !- Outlet Port
  {30a8636b-6e56-4d18-a025-8734f89dc8bd}, !- Target Object
  2;                                      !- Inlet Port

OS:PortList,
  {841b9138-9c63-4a0b-ad69-e2ec7bc161cc}, !- Handle
  Port List 1,                            !- Name
  {ed740bb2-0486-4df5-8355-7ea97b33f464}; !- HVAC Component

OS:PortList,
  {2ff65fe5-b990-4b8f-b5e1-4fa4d2963a34}, !- Handle
  Port List 2,                            !- Name
  {ed740bb2-0486-4df5-8355-7ea97b33f464}; !- HVAC Component

OS:Sizing:Zone,
  {fe97a5c0-e612-4c94-b703-f3deeb3ca4a5}, !- Handle
  {ed740bb2-0486-4df5-8355-7ea97b33f464}, !- Zone or ZoneList Name
  SupplyAirTemperature,                   !- Zone Cooling Design Supply Air Temperature Input Method
  14,                                     !- Zone Cooling Design Supply Air Temperature {C}
  11.11,                                  !- Zone Cooling Design Supply Air Temperature Difference {deltaC}
  SupplyAirTemperature,                   !- Zone Heating Design Supply Air Temperature Input Method
  40,                                     !- Zone Heating Design Supply Air Temperature {C}
  11.11,                                  !- Zone Heating Design Supply Air Temperature Difference {deltaC}
  0.0085,                                 !- Zone Cooling Design Supply Air Humidity Ratio {kg-H2O/kg-air}
  0.008,                                  !- Zone Heating Design Supply Air Humidity Ratio {kg-H2O/kg-air}
  ,                                       !- Zone Heating Sizing Factor
  ,                                       !- Zone Cooling Sizing Factor
  DesignDay,                              !- Cooling Design Air Flow Method
  ,                                       !- Cooling Design Air Flow Rate {m3/s}
  ,                                       !- Cooling Minimum Air Flow per Zone Floor Area {m3/s-m2}
  ,                                       !- Cooling Minimum Air Flow {m3/s}
  ,                                       !- Cooling Minimum Air Flow Fraction
  DesignDay,                              !- Heating Design Air Flow Method
  ,                                       !- Heating Design Air Flow Rate {m3/s}
  ,                                       !- Heating Maximum Air Flow per Zone Floor Area {m3/s-m2}
  ,                                       !- Heating Maximum Air Flow {m3/s}
  ,                                       !- Heating Maximum Air Flow Fraction
  ,                                       !- Design Zone Air Distribution Effectiveness in Cooling Mode
  ,                                       !- Design Zone Air Distribution Effectiveness in Heating Mode
  No,                                     !- Account for Dedicated Outdoor Air System
  NeutralSupplyAir,                       !- Dedicated Outdoor Air System Control Strategy
  autosize,                               !- Dedicated Outdoor Air Low Setpoint Temperature for Design {C}
  autosize;                               !- Dedicated Outdoor Air High Setpoint Temperature for Design {C}

OS:ZoneHVAC:EquipmentList,
  {ef4048d0-32c1-427b-b1fd-c6b42c1b9ee3}, !- Handle
  Zone HVAC Equipment List 1,             !- Name
  {ed740bb2-0486-4df5-8355-7ea97b33f464}; !- Thermal Zone

OS:ElectricEquipment:Definition,
  {c3a2f17d-63f2-4f5b-8a0d-324d75ac2d17}, !- Handle
  unit=1|bed=nil|bath=nil|space={381d5b54-fa3f-4245-9812-ebdc33acae12}, !- Name
  EquipmentLevel,                         !- Design Level Calculation Method
  0,                                      !- Design Level {W}
  ,                                       !- Watts per Space Floor Area {W/m2}
  ;                                       !- Watts per Person {W/person}

OS:Schedule:Ruleset,
  {8c63da04-1cb9-45df-b2f2-46c37b85798c}, !- Handle
  empty_schedule,                         !- Name
  {71330a1d-463c-4bfe-bf55-756cbc20e2a5}, !- Schedule Type Limits Name
  {0e8337b4-9e9d-4e21-9138-cf4f799cfb6b}; !- Default Day Schedule Name

OS:Schedule:Day,
  {0e8337b4-9e9d-4e21-9138-cf4f799cfb6b}, !- Handle
  Schedule Day 1,                         !- Name
  {71330a1d-463c-4bfe-bf55-756cbc20e2a5}, !- Schedule Type Limits Name
  ,                                       !- Interpolate to Timestep
  24,                                     !- Hour 1
  0,                                      !- Minute 1
  0;                                      !- Value Until Time 1

OS:ElectricEquipment,
  {091e51ce-189d-45b8-b36e-dc83dfda109a}, !- Handle
  unit=1|bed=nil|bath=nil|space={381d5b54-fa3f-4245-9812-ebdc33acae12}, !- Name
  {c3a2f17d-63f2-4f5b-8a0d-324d75ac2d17}, !- Electric Equipment Definition Name
  ,                                       !- Space or SpaceType Name
  {8c63da04-1cb9-45df-b2f2-46c37b85798c}; !- Schedule Name

OS:ScheduleTypeLimits,
  {71330a1d-463c-4bfe-bf55-756cbc20e2a5}, !- Handle
  Fractional,                             !- Name
  0,                                      !- Lower Limit Value
  1,                                      !- Upper Limit Value
  Continuous;                             !- Numeric Type

OS:ThermalZone,
  {f6ab3f8f-e337-417e-bb04-c7c51aa1c360}, !- Handle
  living zone|unit 2,                     !- Name
  ,                                       !- Multiplier
  ,                                       !- Ceiling Height {m}
  ,                                       !- Volume {m3}
  ,                                       !- Floor Area {m2}
  ,                                       !- Zone Inside Convection Algorithm
  ,                                       !- Zone Outside Convection Algorithm
  ,                                       !- Zone Conditioning Equipment List Name
  {ad3a4906-a5ff-43fe-ade1-0458bbbd5de1}, !- Zone Air Inlet Port List
  {1a1758ff-dbf8-40a7-8fac-35ede66a038e}, !- Zone Air Exhaust Port List
  {3ebcc223-11a4-4178-88c8-b3b7e95c193e}, !- Zone Air Node Name
  ,                                       !- Zone Return Air Node Name
  ,                                       !- Primary Daylighting Control Name
  ,                                       !- Fraction of Zone Controlled by Primary Daylighting Control
  ,                                       !- Secondary Daylighting Control Name
  ,                                       !- Fraction of Zone Controlled by Secondary Daylighting Control
  ,                                       !- Illuminance Map Name
  ,                                       !- Group Rendering Name
  ,                                       !- Thermostat Name
  No;                                     !- Use Ideal Air Loads

OS:Node,
  {3445a98b-86f7-47ab-ac0e-6c213b4a5b54}, !- Handle
  Node 2,                                 !- Name
  {3ebcc223-11a4-4178-88c8-b3b7e95c193e}, !- Inlet Port
  ;                                       !- Outlet Port

OS:Connection,
  {3ebcc223-11a4-4178-88c8-b3b7e95c193e}, !- Handle
  {8fcb1e72-481e-400f-9fc1-3945c42aa6c5}, !- Name
  {f6ab3f8f-e337-417e-bb04-c7c51aa1c360}, !- Source Object
  11,                                     !- Outlet Port
  {3445a98b-86f7-47ab-ac0e-6c213b4a5b54}, !- Target Object
  2;                                      !- Inlet Port

OS:PortList,
  {ad3a4906-a5ff-43fe-ade1-0458bbbd5de1}, !- Handle
  Port List 3,                            !- Name
  {f6ab3f8f-e337-417e-bb04-c7c51aa1c360}; !- HVAC Component

OS:PortList,
  {1a1758ff-dbf8-40a7-8fac-35ede66a038e}, !- Handle
  Port List 4,                            !- Name
  {f6ab3f8f-e337-417e-bb04-c7c51aa1c360}; !- HVAC Component

OS:Sizing:Zone,
  {81118db5-f9ce-4139-80bc-f52012e71616}, !- Handle
  {f6ab3f8f-e337-417e-bb04-c7c51aa1c360}, !- Zone or ZoneList Name
  SupplyAirTemperature,                   !- Zone Cooling Design Supply Air Temperature Input Method
  14,                                     !- Zone Cooling Design Supply Air Temperature {C}
  11.11,                                  !- Zone Cooling Design Supply Air Temperature Difference {deltaC}
  SupplyAirTemperature,                   !- Zone Heating Design Supply Air Temperature Input Method
  40,                                     !- Zone Heating Design Supply Air Temperature {C}
  11.11,                                  !- Zone Heating Design Supply Air Temperature Difference {deltaC}
  0.0085,                                 !- Zone Cooling Design Supply Air Humidity Ratio {kg-H2O/kg-air}
  0.008,                                  !- Zone Heating Design Supply Air Humidity Ratio {kg-H2O/kg-air}
  ,                                       !- Zone Heating Sizing Factor
  ,                                       !- Zone Cooling Sizing Factor
  DesignDay,                              !- Cooling Design Air Flow Method
  ,                                       !- Cooling Design Air Flow Rate {m3/s}
  ,                                       !- Cooling Minimum Air Flow per Zone Floor Area {m3/s-m2}
  ,                                       !- Cooling Minimum Air Flow {m3/s}
  ,                                       !- Cooling Minimum Air Flow Fraction
  DesignDay,                              !- Heating Design Air Flow Method
  ,                                       !- Heating Design Air Flow Rate {m3/s}
  ,                                       !- Heating Maximum Air Flow per Zone Floor Area {m3/s-m2}
  ,                                       !- Heating Maximum Air Flow {m3/s}
  ,                                       !- Heating Maximum Air Flow Fraction
  ,                                       !- Design Zone Air Distribution Effectiveness in Cooling Mode
  ,                                       !- Design Zone Air Distribution Effectiveness in Heating Mode
  No,                                     !- Account for Dedicated Outdoor Air System
  NeutralSupplyAir,                       !- Dedicated Outdoor Air System Control Strategy
  autosize,                               !- Dedicated Outdoor Air Low Setpoint Temperature for Design {C}
  autosize;                               !- Dedicated Outdoor Air High Setpoint Temperature for Design {C}

OS:ZoneHVAC:EquipmentList,
  {c42543bd-03ce-4e62-9257-0e4f063b0293}, !- Handle
  Zone HVAC Equipment List 2,             !- Name
  {f6ab3f8f-e337-417e-bb04-c7c51aa1c360}; !- Thermal Zone

OS:Space,
  {5496e3a5-1464-4540-b809-6e8537cd54d5}, !- Handle
  living space|unit 2,                    !- Name
  ,                                       !- Space Type Name
  ,                                       !- Default Construction Set Name
  ,                                       !- Default Schedule Set Name
  ,                                       !- Direction of Relative North {deg}
  ,                                       !- X Origin {m}
  ,                                       !- Y Origin {m}
  ,                                       !- Z Origin {m}
  ,                                       !- Building Story Name
  {f6ab3f8f-e337-417e-bb04-c7c51aa1c360}; !- Thermal Zone Name

OS:Surface,
  {ff9f65c3-183a-463d-a2bd-585fe2716031}, !- Handle
  Surface 7,                              !- Name
  Floor,                                  !- Surface Type
  ,                                       !- Construction Name
  {5496e3a5-1464-4540-b809-6e8537cd54d5}, !- Space Name
  Ground,                                 !- Outside Boundary Condition
  ,                                       !- Outside Boundary Condition Object
  NoSun,                                  !- Sun Exposure
  NoWind,                                 !- Wind Exposure
  ,                                       !- View Factor to Ground
  ,                                       !- Number of Vertices
  0, 3.048, 0,                            !- X,Y,Z Vertex 1 {m}
  0, 15.9795688143396, 0,                 !- X,Y,Z Vertex 2 {m}
  6.46578440716979, 15.9795688143396, 0,  !- X,Y,Z Vertex 3 {m}
  6.46578440716979, 3.048, 0;             !- X,Y,Z Vertex 4 {m}

OS:Surface,
  {63342f01-6621-4953-9ef4-85309d3e1e98}, !- Handle
  Surface 8,                              !- Name
  Wall,                                   !- Surface Type
  ,                                       !- Construction Name
  {5496e3a5-1464-4540-b809-6e8537cd54d5}, !- Space Name
  Outdoors,                               !- Outside Boundary Condition
  ,                                       !- Outside Boundary Condition Object
  SunExposed,                             !- Sun Exposure
  WindExposed,                            !- Wind Exposure
  ,                                       !- View Factor to Ground
  ,                                       !- Number of Vertices
  0, 15.9795688143396, 2.4384,            !- X,Y,Z Vertex 1 {m}
  0, 15.9795688143396, 0,                 !- X,Y,Z Vertex 2 {m}
  0, 3.048, 0,                            !- X,Y,Z Vertex 3 {m}
  0, 3.048, 2.4384;                       !- X,Y,Z Vertex 4 {m}

OS:Surface,
  {012f9ca5-60aa-4128-a4e5-d863b48396fc}, !- Handle
  Surface 9,                              !- Name
  Wall,                                   !- Surface Type
  ,                                       !- Construction Name
  {5496e3a5-1464-4540-b809-6e8537cd54d5}, !- Space Name
  Outdoors,                               !- Outside Boundary Condition
  ,                                       !- Outside Boundary Condition Object
  SunExposed,                             !- Sun Exposure
  WindExposed,                            !- Wind Exposure
  ,                                       !- View Factor to Ground
  ,                                       !- Number of Vertices
  6.46578440716979, 15.9795688143396, 2.4384, !- X,Y,Z Vertex 1 {m}
  6.46578440716979, 15.9795688143396, 0,  !- X,Y,Z Vertex 2 {m}
  0, 15.9795688143396, 0,                 !- X,Y,Z Vertex 3 {m}
  0, 15.9795688143396, 2.4384;            !- X,Y,Z Vertex 4 {m}

OS:Surface,
  {f9b8923e-4147-447d-9ff7-52c6e27d233b}, !- Handle
  Surface 10,                             !- Name
  Wall,                                   !- Surface Type
  ,                                       !- Construction Name
  {5496e3a5-1464-4540-b809-6e8537cd54d5}, !- Space Name
  Surface,                                !- Outside Boundary Condition
  {1db65c02-b45f-415d-b67e-d8f108ab5dd5}, !- Outside Boundary Condition Object
  NoSun,                                  !- Sun Exposure
  NoWind,                                 !- Wind Exposure
  ,                                       !- View Factor to Ground
  ,                                       !- Number of Vertices
  6.46578440716979, 3.048, 2.4384,        !- X,Y,Z Vertex 1 {m}
  6.46578440716979, 3.048, 0,             !- X,Y,Z Vertex 2 {m}
  6.46578440716979, 15.9795688143396, 0,  !- X,Y,Z Vertex 3 {m}
  6.46578440716979, 15.9795688143396, 2.4384; !- X,Y,Z Vertex 4 {m}

OS:Surface,
  {311ef0cc-7330-4062-a6db-4fbde9b3f2f7}, !- Handle
  Surface 11,                             !- Name
  Wall,                                   !- Surface Type
  ,                                       !- Construction Name
  {5496e3a5-1464-4540-b809-6e8537cd54d5}, !- Space Name
  Adiabatic,                              !- Outside Boundary Condition
  ,                                       !- Outside Boundary Condition Object
  NoSun,                                  !- Sun Exposure
  NoWind,                                 !- Wind Exposure
  ,                                       !- View Factor to Ground
  ,                                       !- Number of Vertices
  0, 3.048, 2.4384,                       !- X,Y,Z Vertex 1 {m}
  0, 3.048, 0,                            !- X,Y,Z Vertex 2 {m}
  6.46578440716979, 3.048, 0,             !- X,Y,Z Vertex 3 {m}
  6.46578440716979, 3.048, 2.4384;        !- X,Y,Z Vertex 4 {m}

OS:Surface,
  {f16a8330-015e-4dff-a579-1cd7e5288048}, !- Handle
  Surface 12,                             !- Name
  RoofCeiling,                            !- Surface Type
  ,                                       !- Construction Name
  {5496e3a5-1464-4540-b809-6e8537cd54d5}, !- Space Name
  Surface,                                !- Outside Boundary Condition
  {3cd8cecf-f8ff-4a61-be87-e6e56f90d0a4}, !- Outside Boundary Condition Object
  NoSun,                                  !- Sun Exposure
  NoWind,                                 !- Wind Exposure
  ,                                       !- View Factor to Ground
  ,                                       !- Number of Vertices
  6.46578440716979, 3.048, 2.4384,        !- X,Y,Z Vertex 1 {m}
  6.46578440716979, 15.9795688143396, 2.4384, !- X,Y,Z Vertex 2 {m}
  0, 15.9795688143396, 2.4384,            !- X,Y,Z Vertex 3 {m}
  0, 3.048, 2.4384;                       !- X,Y,Z Vertex 4 {m}

OS:ElectricEquipment:Definition,
  {3628b632-aa4a-491a-8d99-eefea68a7e27}, !- Handle
  unit=2|bed=nil|bath=nil|space={5496e3a5-1464-4540-b809-6e8537cd54d5}, !- Name
  EquipmentLevel,                         !- Design Level Calculation Method
  0,                                      !- Design Level {W}
  ,                                       !- Watts per Space Floor Area {W/m2}
  ;                                       !- Watts per Person {W/person}

OS:Schedule:Ruleset,
  {d1971be0-518a-4557-af1d-dcdccf730f0b}, !- Handle
  empty_schedule 1,                       !- Name
  {71330a1d-463c-4bfe-bf55-756cbc20e2a5}, !- Schedule Type Limits Name
  {76948010-6c98-434a-b89c-15f7f580df2e}; !- Default Day Schedule Name

OS:Schedule:Day,
  {76948010-6c98-434a-b89c-15f7f580df2e}, !- Handle
  Schedule Day 2,                         !- Name
  {71330a1d-463c-4bfe-bf55-756cbc20e2a5}, !- Schedule Type Limits Name
  ,                                       !- Interpolate to Timestep
  24,                                     !- Hour 1
  0,                                      !- Minute 1
  0;                                      !- Value Until Time 1

OS:ElectricEquipment,
  {f40ec2e0-d001-464e-8af8-e5acc1b37240}, !- Handle
  unit=2|bed=nil|bath=nil|space={5496e3a5-1464-4540-b809-6e8537cd54d5}, !- Name
  {3628b632-aa4a-491a-8d99-eefea68a7e27}, !- Electric Equipment Definition Name
  ,                                       !- Space or SpaceType Name
  {d1971be0-518a-4557-af1d-dcdccf730f0b}; !- Schedule Name

OS:ThermalZone,
  {f4def37c-82aa-44f7-9e69-907e9bfd7665}, !- Handle
  living zone|unit 3,                     !- Name
  ,                                       !- Multiplier
  ,                                       !- Ceiling Height {m}
  ,                                       !- Volume {m3}
  ,                                       !- Floor Area {m2}
  ,                                       !- Zone Inside Convection Algorithm
  ,                                       !- Zone Outside Convection Algorithm
  ,                                       !- Zone Conditioning Equipment List Name
  {0bfeb0d1-8650-45cd-9e12-325e0f3f9f45}, !- Zone Air Inlet Port List
  {c7717fad-a4c2-4267-91f7-0bba6138e7fe}, !- Zone Air Exhaust Port List
  {2562c91e-a9e6-4df6-a81b-784976c8065e}, !- Zone Air Node Name
  ,                                       !- Zone Return Air Node Name
  ,                                       !- Primary Daylighting Control Name
  ,                                       !- Fraction of Zone Controlled by Primary Daylighting Control
  ,                                       !- Secondary Daylighting Control Name
  ,                                       !- Fraction of Zone Controlled by Secondary Daylighting Control
  ,                                       !- Illuminance Map Name
  ,                                       !- Group Rendering Name
  ,                                       !- Thermostat Name
  No;                                     !- Use Ideal Air Loads

OS:Node,
  {5ee9b283-e7ac-45f1-9a50-dceab4c54fab}, !- Handle
  Node 3,                                 !- Name
  {2562c91e-a9e6-4df6-a81b-784976c8065e}, !- Inlet Port
  ;                                       !- Outlet Port

OS:Connection,
  {2562c91e-a9e6-4df6-a81b-784976c8065e}, !- Handle
  {6a5fa2dd-cef7-4ff1-83b1-a6fe78850586}, !- Name
  {f4def37c-82aa-44f7-9e69-907e9bfd7665}, !- Source Object
  11,                                     !- Outlet Port
  {5ee9b283-e7ac-45f1-9a50-dceab4c54fab}, !- Target Object
  2;                                      !- Inlet Port

OS:PortList,
  {0bfeb0d1-8650-45cd-9e12-325e0f3f9f45}, !- Handle
  Port List 5,                            !- Name
  {f4def37c-82aa-44f7-9e69-907e9bfd7665}; !- HVAC Component

OS:PortList,
  {c7717fad-a4c2-4267-91f7-0bba6138e7fe}, !- Handle
  Port List 6,                            !- Name
  {f4def37c-82aa-44f7-9e69-907e9bfd7665}; !- HVAC Component

OS:Sizing:Zone,
  {8ad7a81e-d3d8-48c4-ada5-37e6579dc2cb}, !- Handle
  {f4def37c-82aa-44f7-9e69-907e9bfd7665}, !- Zone or ZoneList Name
  SupplyAirTemperature,                   !- Zone Cooling Design Supply Air Temperature Input Method
  14,                                     !- Zone Cooling Design Supply Air Temperature {C}
  11.11,                                  !- Zone Cooling Design Supply Air Temperature Difference {deltaC}
  SupplyAirTemperature,                   !- Zone Heating Design Supply Air Temperature Input Method
  40,                                     !- Zone Heating Design Supply Air Temperature {C}
  11.11,                                  !- Zone Heating Design Supply Air Temperature Difference {deltaC}
  0.0085,                                 !- Zone Cooling Design Supply Air Humidity Ratio {kg-H2O/kg-air}
  0.008,                                  !- Zone Heating Design Supply Air Humidity Ratio {kg-H2O/kg-air}
  ,                                       !- Zone Heating Sizing Factor
  ,                                       !- Zone Cooling Sizing Factor
  DesignDay,                              !- Cooling Design Air Flow Method
  ,                                       !- Cooling Design Air Flow Rate {m3/s}
  ,                                       !- Cooling Minimum Air Flow per Zone Floor Area {m3/s-m2}
  ,                                       !- Cooling Minimum Air Flow {m3/s}
  ,                                       !- Cooling Minimum Air Flow Fraction
  DesignDay,                              !- Heating Design Air Flow Method
  ,                                       !- Heating Design Air Flow Rate {m3/s}
  ,                                       !- Heating Maximum Air Flow per Zone Floor Area {m3/s-m2}
  ,                                       !- Heating Maximum Air Flow {m3/s}
  ,                                       !- Heating Maximum Air Flow Fraction
  ,                                       !- Design Zone Air Distribution Effectiveness in Cooling Mode
  ,                                       !- Design Zone Air Distribution Effectiveness in Heating Mode
  No,                                     !- Account for Dedicated Outdoor Air System
  NeutralSupplyAir,                       !- Dedicated Outdoor Air System Control Strategy
  autosize,                               !- Dedicated Outdoor Air Low Setpoint Temperature for Design {C}
  autosize;                               !- Dedicated Outdoor Air High Setpoint Temperature for Design {C}

OS:ZoneHVAC:EquipmentList,
  {71d81516-c2af-45c2-9dc1-e155bf8aaed3}, !- Handle
  Zone HVAC Equipment List 3,             !- Name
  {f4def37c-82aa-44f7-9e69-907e9bfd7665}; !- Thermal Zone

OS:Space,
  {e66ee310-a1cc-4843-862d-3f0254fe66b1}, !- Handle
  living space|unit 3,                    !- Name
  ,                                       !- Space Type Name
  ,                                       !- Default Construction Set Name
  ,                                       !- Default Schedule Set Name
  -0,                                     !- Direction of Relative North {deg}
  0,                                      !- X Origin {m}
  0,                                      !- Y Origin {m}
  0,                                      !- Z Origin {m}
  ,                                       !- Building Story Name
  {f4def37c-82aa-44f7-9e69-907e9bfd7665}; !- Thermal Zone Name

OS:Surface,
  {23f56b90-0f12-4af2-b767-130bee0caef4}, !- Handle
  Surface 13,                             !- Name
  Floor,                                  !- Surface Type
  ,                                       !- Construction Name
  {e66ee310-a1cc-4843-862d-3f0254fe66b1}, !- Space Name
  Ground,                                 !- Outside Boundary Condition
  ,                                       !- Outside Boundary Condition Object