
OS:Version,
  {591429bb-6c2f-448d-844c-f575c4952d2f}, !- Handle
  1.3.1;                                  !- Version Identifier

OS:Construction,
  {7a3b8bf4-26e5-4a34-b9d9-30b889d01be3}, !- Handle
  Slab,                                   !- Name
  ,                                       !- Surface Rendering Name
  {8f4e69f2-49b5-4672-a25b-d66ece05c24f}, !- Layer 1
  {341fcd5c-632f-4653-b456-ea63a81c8452}, !- Layer 2
  {9ee12425-d1d3-49e9-b437-435020e86d14}, !- Layer 3
  {02f939f8-1a06-4e2a-8cb3-6cb6d553a28c}; !- Layer 4

OS:Material,
  {341fcd5c-632f-4653-b456-ea63a81c8452}, !- Handle
  Soil_12in,                              !- Name
  Rough,                                  !- Roughness
  0.3048,                                 !- Thickness {m}
  1.731,                                  !- Conductivity {W/m-K}
  1842.3,                                 !- Density {kg/m3}
  418.7;                                  !- Specific Heat {J/kg-K}

OS:Material,
  {9ee12425-d1d3-49e9-b437-435020e86d14}, !- Handle
  SlabMass,                               !- Name
  Rough,                                  !- Roughness
  0.1016,                                 !- Thickness {m}
  1.312675,                               !- Conductivity {W/m-K}
  2242.79999999999,                       !- Density {kg/m3}
  837.4;                                  !- Specific Heat {J/kg-K}

OS:Material,
  {02f939f8-1a06-4e2a-8cb3-6cb6d553a28c}, !- Handle
  SlabCarpetBareEquivalentMaterial,       !- Name
  Rough,                                  !- Roughness
  0.0254,                                 !- Thickness {m}
  0.0866804263311929,                     !- Conductivity {W/m-K}
  40.05,                                  !- Density {kg/m3}
  1214.23;                                !- Specific Heat {J/kg-K}

OS:Material,
  {8f4e69f2-49b5-4672-a25b-d66ece05c24f}, !- Handle
  Mat-Fic-Slab,                           !- Name
  Rough,                                  !- Roughness
  0.0254,                                 !- Thickness {m}
  0.0038317625676038,                     !- Conductivity {W/m-K}
  40.05,                                  !- Density {kg/m3}
  1214.23;                                !- Specific Heat {J/kg-K}

