
OS:Version,
  {ccf678ec-4a21-4cf7-8d0d-82f35ba47bd3}, !- Handle
  1.3.1;                                  !- Version Identifier

OS:Construction,
  {475e5584-d81c-4cba-91c9-671191dd0840}, !- Handle
  GrndUninsUnfinCSFloor,                  !- Name
  ,                                       !- Surface Rendering Name
  {3658f823-e9a4-48c4-a8b4-b3a8e6e15b02}, !- Layer 1
  {ccd01e24-f461-42b6-95e7-7220ad518647}; !- Layer 2

OS:Material,
  {ccd01e24-f461-42b6-95e7-7220ad518647}, !- Handle
  Soil_12in,                              !- Name
  Rough,                                  !- Roughness
  0.3048,                                 !- Thickness {m}
  1.731,                                  !- Conductivity {W/m-K}
  1842.3,                                 !- Density {kg/m3}
  418.7;                                  !- Specific Heat {J/kg-K}

OS:Material:NoMass,
  {3658f823-e9a4-48c4-a8b4-b3a8e6e15b02}, !- Handle
  CFloor_FicR_Wall_R_13_Fiberglass_Batt,  !- Name
  Rough,                                  !- Roughness
  4.84402075169421;                       !- Thermal Resistance {m2-K/W}

