
OS:Version,
  {a1cfddc9-6dfb-4265-95f1-04aab49ae978}, !- Handle
  1.3.1;                                  !- Version Identifier

OS:Construction,
  {fa60a7f8-9cb6-4272-83d6-c7a65a38a4b7}, !- Handle
  ExtInsFinWall,                          !- Name
  ,                                       !- Surface Rendering Name
  {165fb232-b330-4bec-b2db-3b6a378290be}, !- Layer 1
  {43a49443-77ae-4d30-bf19-8e22c5a5bd1b}, !- Layer 2
  {726f2bad-c937-43a1-bf7a-15f577984cea}, !- Layer 3
  {2f7d70d7-571e-4d8f-a237-7d0b5c6476e8}; !- Layer 4

OS:Material,
  {165fb232-b330-4bec-b2db-3b6a378290be}, !- Handle
  Exterior_Finish_Vinyl_Light,            !- Name
  Rough,                                  !- Roughness
  0.009525,                               !- Thickness {m}
  0.089435,                               !- Conductivity {W/m-K}
  177.822,                                !- Density {kg/m3}
  1046.75,                                !- Specific Heat {J/kg-K}
  0.9,                                    !- Thermal Absorptance
  0.3,                                    !- Solar Absorptance
  0.3;                                    !- Visible Absorptance

OS:Material,
  {2f7d70d7-571e-4d8f-a237-7d0b5c6476e8}, !- Handle
  GypsumBoard_1_2in,                      !- Name
  Rough,                                  !- Roughness
  0.0127,                                 !- Thickness {m}
  0.1602906,                              !- Conductivity {W/m-K}
  801,                                    !- Density {kg/m3}
  837.4;                                  !- Specific Heat {J/kg-K}

OS:Material,
  {43a49443-77ae-4d30-bf19-8e22c5a5bd1b}, !- Handle
  CMU,                                    !- Name
  Rough,                                  !- Roughness
  0.1524,                                 !- Thickness {m}
  0.304806111170115,                      !- Conductivity {W/m-K}
  1800.45576,                             !- Density {kg/m3}
  845.554345303769;                       !- Specific Heat {J/kg-K}

OS:Material,
  {726f2bad-c937-43a1-bf7a-15f577984cea}, !- Handle
  Furring,                                !- Name
  Rough,                                  !- Roughness
  0.1397,                                 !- Thickness {m}
  0.0519641842131579,                     !- Conductivity {W/m-K}
  110.3341455,                            !- Density {kg/m3}
  1154.52431712832;                       !- Specific Heat {J/kg-K}

