
OS:Version,
  {d563c4be-78f5-4dc9-8265-7a63ad7af0ee}, !- Handle
  1.3.1;                                  !- Version Identifier

OS:Material:NoMass,
  {54c73b62-4389-476e-a8b4-f6bcff03c8f8}, !- Handle
  CFloor_FicR_Ceiling_R_13_Fiberglass_Batt, !- Name
  Rough,                                  !- Roughness
  176.1;                                  !- Thermal Resistance {m2-K/W}

OS:ComponentData,
  {54ba7029-d3d9-4a02-a236-ce968c0b04d2}, !- Handle
  Component Data 1,                       !- Name
  {52945bba-7824-49fa-ad03-1f62292c5b95}, !- UUID
  {a8a1b574-a071-4c96-ae2b-05cae5510ddc}, !- Version UUID
  1406054952,                             !- Creation Timestamp
  1406054952,                             !- Version Timestamp
  {54c73b62-4389-476e-a8b4-f6bcff03c8f8}; !- Name of Object 1

