
OS:Version,
  {07b81955-98ca-422d-9cdc-2948f8976b7b}, !- Handle
  1.3.1;                                  !- Version Identifier

OS:Material:NoMass,
  {a29ddd42-f3f4-4f66-9026-e8f8912db9b4}, !- Handle
  CFloor_FicR_Wall_R_13_Fiberglass_Batt,  !- Name
  Rough,                                  !- Roughness
  4.84402075169421;                       !- Thermal Resistance {m2-K/W}

OS:ComponentData,
  {1945e166-f8e5-4b2d-8012-807f8fc76eb7}, !- Handle
  Component Data 1,                       !- Name
  {58f7e42a-bcf7-40d3-bb89-41f3cc38307f}, !- UUID
  {d4b4bd52-025a-4e5a-9ac0-ddbd013c811e}, !- Version UUID
  1406054952,                             !- Creation Timestamp
  1406054952,                             !- Version Timestamp
  {a29ddd42-f3f4-4f66-9026-e8f8912db9b4}; !- Name of Object 1

