
OS:Version,
  {b29d8f80-ad85-41fd-ad6c-4b15f76f1395}, !- Handle
  1.3.1;                                  !- Version Identifier

OS:Material:NoMass,
  {2c663523-25ba-4955-916b-ff5646791efd}, !- Handle
  CFloor_FicR_Ceiling_R_13_Closed_Cell_Spray_Foam, !- Name
  Rough,                                  !- Roughness
  176.1;                                  !- Thermal Resistance {m2-K/W}

OS:ComponentData,
  {60806752-0530-40e2-bdc5-2f4ea65bde1e}, !- Handle
  Component Data 1,                       !- Name
  {af4c8685-f20f-4da0-a656-e1f2c3d92a79}, !- UUID
  {7b3d0c20-14e2-4464-a602-9e90a17ec04d}, !- Version UUID
  1406054952,                             !- Creation Timestamp
  1406054952,                             !- Version Timestamp
  {2c663523-25ba-4955-916b-ff5646791efd}; !- Name of Object 1

