
OS:Version,
  {5d82d15d-3526-4b21-a07a-5974d231adfe}, !- Handle
  1.3.1;                                  !- Version Identifier

OS:Material:NoMass,
  {3a5acbcd-1ac1-4c10-8e45-6b325279fd83}, !- Handle
  CFloor_FicR_Ceiling_R_30_Fiberglass_Batt, !- Name
  Rough,                                  !- Roughness
  176.1;                                  !- Thermal Resistance {m2-K/W}

OS:ComponentData,
  {31cd341f-5e7e-451c-a975-65929d99750c}, !- Handle
  Component Data 1,                       !- Name
  {264f9753-39aa-4b90-bd42-59303b553aaa}, !- UUID
  {a54ae710-ee85-4d67-8a65-7f9f7b11a15b}, !- Version UUID
  1406054952,                             !- Creation Timestamp
  1406054952,                             !- Version Timestamp
  {3a5acbcd-1ac1-4c10-8e45-6b325279fd83}; !- Name of Object 1

