
OS:Version,
  {016d635e-787e-4eff-8847-b5fb2618f027}, !- Handle
  1.3.1;                                  !- Version Identifier

OS:Material:NoMass,
  {3603d4b9-7b52-4a79-871e-34607f80c8d7}, !- Handle
  CFloor_FicR_Ceiling_R_19_Fiberglass_Batt, !- Name
  Rough,                                  !- Roughness
  176.1;                                  !- Thermal Resistance {m2-K/W}

OS:ComponentData,
  {b57e3b2b-5aca-46a2-8cee-e22ae172fab1}, !- Handle
  Component Data 1,                       !- Name
  {0a81bdb6-5297-4707-b25c-7002392fa74d}, !- UUID
  {6080ed0a-317f-46fb-bb78-aead36e8f5ae}, !- Version UUID
  1406054952,                             !- Creation Timestamp
  1406054952,                             !- Version Timestamp
  {3603d4b9-7b52-4a79-871e-34607f80c8d7}; !- Name of Object 1

