
OS:Version,
  {2fd0851d-4ddd-4fff-9fa5-56c43cbc6827}, !- Handle
  1.3.1;                                  !- Version Identifier

OS:Material:NoMass,
  {c0b8c7e1-8602-413a-806c-24b437c1e519}, !- Handle
  CFloor_FicR_Wall_R_11_Fiberglass_Batt,  !- Name
  Rough,                                  !- Roughness
  5.08138058423134;                       !- Thermal Resistance {m2-K/W}

OS:ComponentData,
  {1dcb1c9f-fcd9-4c27-888a-5caf95ac3601}, !- Handle
  Component Data 1,                       !- Name
  {eb86cdd7-5575-4407-93ff-c1a78067e79c}, !- UUID
  {e740ad83-e56e-44e7-8876-b2ea1b5c875d}, !- Version UUID
  1406054952,                             !- Creation Timestamp
  1406054952,                             !- Version Timestamp
  {c0b8c7e1-8602-413a-806c-24b437c1e519}; !- Name of Object 1

