
OS:Version,
  {586efeb7-18c8-4f7f-a165-6a4301afa46b}, !- Handle
  1.3.1;                                  !- Version Identifier

OS:Material:NoMass,
  {e004fdaa-0235-4ee5-9c57-e6fb0cc16447}, !- Handle
  CWall_FicR_Ceiling_R_30_Closed_Cell_Spray_Foam, !- Name
  Rough,                                  !- Roughness
  0.0995182101488837;                     !- Thermal Resistance {m2-K/W}

OS:ComponentData,
  {90b676c6-a708-4b3a-b7c2-f7640d40f8c3}, !- Handle
  Component Data 1,                       !- Name
  {88d34d70-5bb0-49b0-ac32-7f4b5e9c09a5}, !- UUID
  {2be98f3b-c34c-4d16-80e2-a6603c9a6dbd}, !- Version UUID
  1406054953,                             !- Creation Timestamp
  1406054953,                             !- Version Timestamp
  {e004fdaa-0235-4ee5-9c57-e6fb0cc16447}; !- Name of Object 1

