
OS:Version,
  {9f0aa1a2-1170-4d0e-8941-5559a1d35998}, !- Handle
  1.3.1;                                  !- Version Identifier

OS:Material:NoMass,
  {39b7c82b-b096-4cdb-a58e-afe3acd4e863}, !- Handle
  CWall_FicR_Ceiling_R_30_Fiberglass_Batt, !- Name
  Rough,                                  !- Roughness
  0.0995182101488837;                     !- Thermal Resistance {m2-K/W}

OS:ComponentData,
  {48e94c1c-912c-48b5-b1e0-76e9c483183b}, !- Handle
  Component Data 1,                       !- Name
  {8038927a-9346-407d-810b-d8fdf5000f2d}, !- UUID
  {dc5aae13-53db-4397-8b52-a69f70df27f7}, !- Version UUID
  1406054952,                             !- Creation Timestamp
  1406054952,                             !- Version Timestamp
  {39b7c82b-b096-4cdb-a58e-afe3acd4e863}; !- Name of Object 1

