
OS:Version,
  {49d69bac-71a0-4d41-a6e8-abd4db853725}, !- Handle
  1.3.1;                                  !- Version Identifier

OS:Material:NoMass,
  {41a98760-c36f-4ea7-be13-76db554b68d3}, !- Handle
  FBaseFloor_FicR_Half_Wall_R_10_XPS,     !- Name
  Rough,                                  !- Roughness
  176.1;                                  !- Thermal Resistance {m2-K/W}

OS:ComponentData,
  {4dbe9cbb-b774-4617-bf28-b5218e6c9edb}, !- Handle
  Component Data 1,                       !- Name
  {8339c0eb-6bd6-4b13-b6bf-808a8b10fa74}, !- UUID
  {22784edd-0bcd-481e-8d9b-bb59970bcf07}, !- Version UUID
  1406054951,                             !- Creation Timestamp
  1406054951,                             !- Version Timestamp
  {41a98760-c36f-4ea7-be13-76db554b68d3}; !- Name of Object 1

