
OS:Version,
  {79d7b41b-59c1-49c8-9ec2-2e0ad8ea3e2e}, !- Handle
  1.3.1;                                  !- Version Identifier

OS:Material:NoMass,
  {73924a9b-2060-4c69-a6d5-af21fa9c49a8}, !- Handle
  FBaseWall_FicR_Whole_Wall_R_21_Fiberglass_Batt_Gr_2_2x6_24_in_o.c., !- Name
  Rough,                                  !- Roughness
  1.72853537573875;                       !- Thermal Resistance {m2-K/W}

OS:ComponentData,
  {32eebec5-ae59-4e3c-aacd-257811fb7916}, !- Handle
  Component Data 1,                       !- Name
  {c2e60b95-afc1-431d-a0ec-02038de9dd94}, !- UUID
  {81d93cf5-3f4e-43dc-840a-c3423517d5d1}, !- Version UUID
  1406054951,                             !- Creation Timestamp
  1406054951,                             !- Version Timestamp
  {73924a9b-2060-4c69-a6d5-af21fa9c49a8}; !- Name of Object 1

