
OS:Version,
  {cff36a00-337a-4fb0-bace-bf733eb8e745}, !- Handle
  1.3.1;                                  !- Version Identifier

OS:Material:NoMass,
  {dc772fef-62c0-4b89-856d-84a168e8b4f6}, !- Handle
  FBaseFloor_FicR_Whole_Wall_R_15_XPS,    !- Name
  Rough,                                  !- Roughness
  8.90794360004395;                       !- Thermal Resistance {m2-K/W}

OS:ComponentData,
  {61425f5c-ea90-490e-b895-7404ca026f5d}, !- Handle
  Component Data 1,                       !- Name
  {b85bbd26-0b03-4ecf-8fa2-7af69f73a99a}, !- UUID
  {41de518d-9f90-4f2d-8e02-5ee9ad7fe8db}, !- Version UUID
  1406054951,                             !- Creation Timestamp
  1406054951,                             !- Version Timestamp
  {dc772fef-62c0-4b89-856d-84a168e8b4f6}; !- Name of Object 1

