
OS:Version,
  {1d395376-3061-47db-bb8f-0a95bae91207}, !- Handle
  1.3.1;                                  !- Version Identifier

OS:Material:NoMass,
  {799aeba0-17a9-47de-84aa-2a8610e8998c}, !- Handle
  FBaseWall_FicR_Whole_Wall_R_13_Fiberglass_Batt_Gr_2_2x4_16_in_o.c._R_10_XPS, !- Name
  Rough,                                  !- Roughness
  0.331166394736562;                      !- Thermal Resistance {m2-K/W}

OS:ComponentData,
  {80fab6aa-33f8-48ad-a8b5-3d32e1360431}, !- Handle
  Component Data 1,                       !- Name
  {b5e542c7-4194-4a95-aa6f-c4232a711299}, !- UUID
  {31c1c980-58b2-43c8-96c3-fff5fdca9b65}, !- Version UUID
  1406054951,                             !- Creation Timestamp
  1406054951,                             !- Version Timestamp
  {799aeba0-17a9-47de-84aa-2a8610e8998c}; !- Name of Object 1

