
OS:Version,
  {beeae9b1-2cb7-4d3b-b1c6-78842a445fb4}, !- Handle
  1.3.1;                                  !- Version Identifier

OS:Material:NoMass,
  {4cf83e4b-e26a-46c0-9f98-e55cf6a8796f}, !- Handle
  FBaseFloor_FicR_Whole_Wall_R_20_XPS,    !- Name
  Rough,                                  !- Roughness
  7.58538903773754;                       !- Thermal Resistance {m2-K/W}

OS:ComponentData,
  {1523a01c-7198-4bd4-87f9-cff677392b34}, !- Handle
  Component Data 1,                       !- Name
  {4d93891f-4786-4ac4-92f4-6f772a6cead4}, !- UUID
  {3ae82e4f-8811-40f6-a4e5-8ab8c09386c0}, !- Version UUID
  1406054951,                             !- Creation Timestamp
  1406054951,                             !- Version Timestamp
  {4cf83e4b-e26a-46c0-9f98-e55cf6a8796f}; !- Name of Object 1

