
OS:Version,
  {5998792f-8207-43a3-81f7-74507f829426}, !- Handle
  1.3.1;                                  !- Version Identifier

OS:Material:NoMass,
  {e90e5d4f-6290-416f-83d7-dd50536ed591}, !- Handle
  FBaseWall_FicR_Half_Wall_R_5_XPS,       !- Name
  Rough,                                  !- Roughness
  0.610367492146114;                      !- Thermal Resistance {m2-K/W}

OS:ComponentData,
  {f6836b8e-30ac-4795-83a4-ce971263101b}, !- Handle
  Component Data 1,                       !- Name
  {a66d79b7-260f-4360-b7e7-a711d941bf3b}, !- UUID
  {4d990098-f523-4794-a9f8-52dd4300b2cc}, !- Version UUID
  1406054951,                             !- Creation Timestamp
  1406054951,                             !- Version Timestamp
  {e90e5d4f-6290-416f-83d7-dd50536ed591}; !- Name of Object 1

