
OS:Version,
  {e5280c70-ec0a-4125-9b27-5b0d7cce1f03}, !- Handle
  1.3.1;                                  !- Version Identifier

OS:Material:NoMass,
  {b1c69ec2-6e75-4c12-a92c-61aeb90da39d}, !- Handle
  FBaseFloor_FicR_Whole_Wall_R_11_Fiberglass_Batt_Gr_2_2x4_16_in_o.c., !- Name
  Rough,                                  !- Roughness
  176.1;                                  !- Thermal Resistance {m2-K/W}

OS:ComponentData,
  {f81d233c-f918-4d6b-ac55-2638abd4b760}, !- Handle
  Component Data 1,                       !- Name
  {7231a1dc-afc1-417b-95e8-1a2138d6f547}, !- UUID
  {4bcf4286-cd3a-4b89-ab32-c80b0721aeaa}, !- Version UUID
  1406054951,                             !- Creation Timestamp
  1406054951,                             !- Version Timestamp
  {b1c69ec2-6e75-4c12-a92c-61aeb90da39d}; !- Name of Object 1

