
OS:Version,
  {72d70249-c2cf-4341-84c0-ec8d95e7d36e}, !- Handle
  1.3.1;                                  !- Version Identifier

OS:Material:NoMass,
  {93259d8c-58f5-415d-bb88-0513878e9245}, !- Handle
  FBaseWall_FicR_Whole_Wall_R_11_Fiberglass_Batt_Gr_2_2x4_16_in_o.c., !- Name
  Rough,                                  !- Roughness
  1.31437451280835;                       !- Thermal Resistance {m2-K/W}

OS:ComponentData,
  {efbcd286-3db6-4fe5-af56-5064175792b5}, !- Handle
  Component Data 1,                       !- Name
  {d75ebba4-48a8-4616-adcd-57bc86e59580}, !- UUID
  {a459ed30-227e-4a49-8ab3-662e23c806f1}, !- Version UUID
  1406054951,                             !- Creation Timestamp
  1406054951,                             !- Version Timestamp
  {93259d8c-58f5-415d-bb88-0513878e9245}; !- Name of Object 1

