
OS:Version,
  {02b616b6-5a20-4517-8d99-4921b7ac9659}, !- Handle
  1.3.1;                                  !- Version Identifier

OS:Material,
  {9d15709d-a71f-4a34-b88e-8d016b1587b8}, !- Handle
  Layer3,                                 !- Name
  Rough,                                  !- Roughness
  0.0889,                                 !- Thickness {m}
  0.13371975,                             !- Conductivity {W/m-K}
  833.5206,                               !- Density {kg/m3}
  1046.75;                                !- Specific Heat {J/kg-K}

OS:ComponentData,
  {6645fe15-de0d-485c-95c8-d6b9c336f3e2}, !- Handle
  Component Data 1,                       !- Name
  {7def09ad-0edb-42a0-8ff8-b498c2edcfda}, !- UUID
  {97df3af7-9af8-4505-821f-6a4327a61408}, !- Version UUID
  1406054950,                             !- Creation Timestamp
  1406054950,                             !- Version Timestamp
  {9d15709d-a71f-4a34-b88e-8d016b1587b8}; !- Name of Object 1

