
OS:Version,
  {1b74aa15-8e0b-4455-a9ef-18293de4d891}, !- Handle
  1.3.1;                                  !- Version Identifier

OS:Material:NoMass,
  {d192cfbc-a0c7-4cd0-a0d8-91cacb9bacdb}, !- Handle
  UFBaseFloor_FicR_Whole_Wall_R_20_XPS,   !- Name
  Rough,                                  !- Roughness
  7.87824101236186;                       !- Thermal Resistance {m2-K/W}

OS:ComponentData,
  {265f2daa-d6b3-4001-8ccf-ed458312f3d2}, !- Handle
  Component Data 1,                       !- Name
  {ebb509f4-6d61-4347-8be1-6d91bccf1a3a}, !- UUID
  {74cdb7c4-73c4-47d0-a955-a0b2a2cdfb49}, !- Version UUID
  1406054953,                             !- Creation Timestamp
  1406054953,                             !- Version Timestamp
  {d192cfbc-a0c7-4cd0-a0d8-91cacb9bacdb}; !- Name of Object 1

