
OS:Version,
  {c1b0536b-a804-4a19-9d18-d0d8415a11b7}, !- Handle
  1.3.1;                                  !- Version Identifier

OS:Material:NoMass,
  {993a74df-8a82-4e93-8a5c-4c526bec6eec}, !- Handle
  UFBaseFloor_FicR_Half_Wall_R_6_Polyiso, !- Name
  Rough,                                  !- Roughness
  176.1;                                  !- Thermal Resistance {m2-K/W}

OS:ComponentData,
  {221ef22a-f441-49e4-9727-bfd4e042cc8d}, !- Handle
  Component Data 1,                       !- Name
  {e6942521-4088-4b05-8445-fc89e94dbdff}, !- UUID
  {6d8bed8f-37d0-4aef-993d-4beca5a26777}, !- Version UUID
  1406054953,                             !- Creation Timestamp
  1406054953,                             !- Version Timestamp
  {993a74df-8a82-4e93-8a5c-4c526bec6eec}; !- Name of Object 1

