
OS:Version,
  {bf73b6ce-a277-4947-808f-cc33ab8e0420}, !- Handle
  1.3.1;                                  !- Version Identifier

OS:Material:NoMass,
  {9772b62b-85d3-4831-a8eb-3cde1731a6c1}, !- Handle
  UFBaseWall_FicR_Ceiling_R_19_Fiberglass_Batt, !- Name
  Rough,                                  !- Roughness
  0.511257279809397;                      !- Thermal Resistance {m2-K/W}

OS:ComponentData,
  {58f50c77-9443-4d8d-b590-3cde78ac11e6}, !- Handle
  Component Data 1,                       !- Name
  {f1618442-ff7f-42e0-a152-0800a0276af4}, !- UUID
  {d2b28569-42df-4ff9-828d-b60b6c0ff37e}, !- Version UUID
  1406054954,                             !- Creation Timestamp
  1406054954,                             !- Version Timestamp
  {9772b62b-85d3-4831-a8eb-3cde1731a6c1}; !- Name of Object 1

