
OS:Version,
  {bab4f7f5-2157-4294-9251-8ebf1db6d627}, !- Handle
  1.3.1;                                  !- Version Identifier

OS:Material:NoMass,
  {0f6a1aab-264b-4c23-967b-10487539e9ac}, !- Handle
  UFBaseFloor_FicR_Whole_Wall_R_13_Fiberglass_Batt_Gr_2_2x4_16_in_o.c., !- Name
  Rough,                                  !- Roughness
  176.1;                                  !- Thermal Resistance {m2-K/W}

OS:ComponentData,
  {129f1a22-44a1-4330-946b-8496c12fd696}, !- Handle
  Component Data 1,                       !- Name
  {2455e48c-9aec-4a45-906f-b1197566cc9e}, !- UUID
  {32f088f2-6847-48d6-a510-d11018a08b69}, !- Version UUID
  1406054953,                             !- Creation Timestamp
  1406054953,                             !- Version Timestamp
  {0f6a1aab-264b-4c23-967b-10487539e9ac}; !- Name of Object 1

