
OS:Version,
  {18622b16-3ce3-47b0-aeb2-38edf4823d32}, !- Handle
  1.3.1;                                  !- Version Identifier

OS:Material:NoMass,
  {e5c4f5ba-0ee1-448c-b62b-daebb8104b9d}, !- Handle
  UFBaseFloor_FicR_Ceiling_R_13_Fiberglass_Batt, !- Name
  Rough,                                  !- Roughness
  176.1;                                  !- Thermal Resistance {m2-K/W}

OS:ComponentData,
  {ea7e7133-cb11-4c96-94b3-f6e7e890c85b}, !- Handle
  Component Data 1,                       !- Name
  {5c2d7bd9-8108-4129-94d0-7b73d06fe85f}, !- UUID
  {b70e1977-333a-4a30-a49c-bcab1f87e476}, !- Version UUID
  1406054954,                             !- Creation Timestamp
  1406054954,                             !- Version Timestamp
  {e5c4f5ba-0ee1-448c-b62b-daebb8104b9d}; !- Name of Object 1

