
OS:Version,
  {2b24db1e-c348-4aa6-a11f-64b482920d1c}, !- Handle
  1.3.1;                                  !- Version Identifier

OS:Material:NoMass,
  {a5ddd15b-23cb-4a0c-8108-80353dcc84f7}, !- Handle
  UFBaseWall_FicR_Whole_Wall_R_19_Fiberglass_Batt_Gr_2_2x6_24_in_o.c., !- Name
  Rough,                                  !- Roughness
  1.71476492497165;                       !- Thermal Resistance {m2-K/W}

OS:ComponentData,
  {ab28badc-acfa-4de0-9358-ebf00612df80}, !- Handle
  Component Data 1,                       !- Name
  {e89f342c-fe40-4f38-925f-23c199bef8f6}, !- UUID
  {14ca64ab-7834-422a-a9fe-5f428b914e7d}, !- Version UUID
  1406054953,                             !- Creation Timestamp
  1406054953,                             !- Version Timestamp
  {a5ddd15b-23cb-4a0c-8108-80353dcc84f7}; !- Name of Object 1

