
OS:Version,
  {c8c93a89-1209-43eb-b8d4-4ba418511609}, !- Handle
  1.3.1;                                  !- Version Identifier

OS:Material:NoMass,
  {2307ea1e-b23f-4fc3-8d9f-76bc1aa58be9}, !- Handle
  UFBaseFloor_FicR_Whole_Wall_R_15_XPS,   !- Name
  Rough,                                  !- Roughness
  9.58784349816594;                       !- Thermal Resistance {m2-K/W}

OS:ComponentData,
  {928a14cb-a0e6-41c6-9040-69406cac72cd}, !- Handle
  Component Data 1,                       !- Name
  {233808cf-e840-4ce9-8671-bba42a7feddd}, !- UUID
  {721f30f6-d433-4ae7-b5af-5611a1b946e5}, !- Version UUID
  1406054953,                             !- Creation Timestamp
  1406054953,                             !- Version Timestamp
  {2307ea1e-b23f-4fc3-8d9f-76bc1aa58be9}; !- Name of Object 1

