
OS:Version,
  {6538d5a1-2289-4bf2-9fea-5601cf8956c3}, !- Handle
  1.3.1;                                  !- Version Identifier

OS:Material:NoMass,
  {2a5d3d62-5014-4fa7-8d2c-36c13ce2b131}, !- Handle
  UFBaseFloor_FicR_Ceiling_R_38_Fiberglass_Batt, !- Name
  Rough,                                  !- Roughness
  176.1;                                  !- Thermal Resistance {m2-K/W}

OS:ComponentData,
  {4c6bc959-5e43-487a-82d7-3f0b3532fb44}, !- Handle
  Component Data 1,                       !- Name
  {13a3d923-2430-4548-971e-cc3f915f69a7}, !- UUID
  {459ed279-68fe-4572-95b9-6cf16c5599eb}, !- Version UUID
  1406054954,                             !- Creation Timestamp
  1406054954,                             !- Version Timestamp
  {2a5d3d62-5014-4fa7-8d2c-36c13ce2b131}; !- Name of Object 1

