
OS:Version,
  {418769e6-8c68-43c0-b256-cae040b62f7f}, !- Handle
  1.3.1;                                  !- Version Identifier

OS:Material:NoMass,
  {d3fa390f-552f-4eea-8373-885b1fc25269}, !- Handle
  UFBaseFloor_FicR_Whole_Wall_R_13_Fiberglass_Batt_Gr_2_2x4_16_in_o.c._R_10_XPS, !- Name
  Rough,                                  !- Roughness
  176.1;                                  !- Thermal Resistance {m2-K/W}

OS:ComponentData,
  {263e09bd-cd2b-44f5-be70-2b0c9e74b606}, !- Handle
  Component Data 1,                       !- Name
  {a988f5c2-6e1c-41b3-a40d-288d9d9dc446}, !- UUID
  {314c3647-d357-4c60-ba9c-34b623ed2c45}, !- Version UUID
  1406054954,                             !- Creation Timestamp
  1406054954,                             !- Version Timestamp
  {d3fa390f-552f-4eea-8373-885b1fc25269}; !- Name of Object 1

