
OS:Version,
  {29cd77a3-304a-4c5d-a912-5dc31871b06c}, !- Handle
  1.3.1;                                  !- Version Identifier

OS:Material:NoMass,
  {f256c6d7-ed95-45ab-8d07-a6724086f6bb}, !- Handle
  UFBaseFloor_FicR_Whole_Wall_R_11_Fiberglass_Batt_Gr_2_2x4_16_in_o.c., !- Name
  Rough,                                  !- Roughness
  176.1;                                  !- Thermal Resistance {m2-K/W}

OS:ComponentData,
  {199f6743-49bb-4bea-b42e-7943e1c9b16a}, !- Handle
  Component Data 1,                       !- Name
  {b35ad18a-9a4a-4598-a66a-369774d13937}, !- UUID
  {09c9a947-7515-47d4-8212-c4bdfadca72b}, !- Version UUID
  1406054953,                             !- Creation Timestamp
  1406054953,                             !- Version Timestamp
  {f256c6d7-ed95-45ab-8d07-a6724086f6bb}; !- Name of Object 1

