
OS:Version,
  {cee536df-8fab-4c16-8320-b4b870500084}, !- Handle
  1.3.1;                                  !- Version Identifier

OS:Construction,
  {5f5d99ac-5ed6-4d80-8e75-b20c8b04970d}, !- Handle
  Slab,                                   !- Name
  ,                                       !- Surface Rendering Name
  {1851b1ec-f294-40f3-9e84-5f11c8ec4467}, !- Layer 1
  {292195f4-d275-4018-87dd-0e2a7493c8ee}, !- Layer 2
  {cbb16fe7-c470-48d7-9373-180a55be2296}, !- Layer 3
  {d7fdfb5d-0de2-4f2f-9ed3-7497dafedc65}; !- Layer 4

OS:Material,
  {292195f4-d275-4018-87dd-0e2a7493c8ee}, !- Handle
  Soil_12in,                              !- Name
  Rough,                                  !- Roughness
  0.3048,                                 !- Thickness {m}
  1.731,                                  !- Conductivity {W/m-K}
  1842.3,                                 !- Density {kg/m3}
  418.7;                                  !- Specific Heat {J/kg-K}

OS:Material,
  {cbb16fe7-c470-48d7-9373-180a55be2296}, !- Handle
  SlabMass,                               !- Name
  Rough,                                  !- Roughness
  0.1016,                                 !- Thickness {m}
  1.312675,                               !- Conductivity {W/m-K}
  2242.79999999999,                       !- Density {kg/m3}
  837.4;                                  !- Specific Heat {J/kg-K}

OS:Material,
  {d7fdfb5d-0de2-4f2f-9ed3-7497dafedc65}, !- Handle
  SlabCarpetBareEquivalentMaterial,       !- Name
  Rough,                                  !- Roughness
  0.0254,                                 !- Thickness {m}
  0.0866804263311929,                     !- Conductivity {W/m-K}
  40.05,                                  !- Density {kg/m3}
  1214.23;                                !- Specific Heat {J/kg-K}

OS:Material,
  {1851b1ec-f294-40f3-9e84-5f11c8ec4467}, !- Handle
  Mat-Fic-Slab,                           !- Name
  Rough,                                  !- Roughness
  0.0254,                                 !- Thickness {m}
  0.013147504639514,                      !- Conductivity {W/m-K}
  40.05,                                  !- Density {kg/m3}
  1214.23;                                !- Specific Heat {J/kg-K}

