
OS:Version,
  {32489117-faa4-43da-a189-af1397d1135a}, !- Handle
  1.3.1;                                  !- Version Identifier

OS:Construction,
  {cae53f7a-38a2-4547-a934-8080785c86ce}, !- Handle
  Slab,                                   !- Name
  ,                                       !- Surface Rendering Name
  {d3404183-2f2e-480b-8810-5d87b8abdad9}, !- Layer 1
  {411566ef-c8b5-4c92-9df5-0e03469df196}, !- Layer 2
  {e7cfb43a-225e-497c-b21b-d8d4e7d00af1}, !- Layer 3
  {204a0893-57ef-473d-af7f-5076d3e2daff}; !- Layer 4

OS:Material,
  {411566ef-c8b5-4c92-9df5-0e03469df196}, !- Handle
  Soil_12in,                              !- Name
  Rough,                                  !- Roughness
  0.3048,                                 !- Thickness {m}
  1.731,                                  !- Conductivity {W/m-K}
  1842.3,                                 !- Density {kg/m3}
  418.7;                                  !- Specific Heat {J/kg-K}

OS:Material,
  {e7cfb43a-225e-497c-b21b-d8d4e7d00af1}, !- Handle
  SlabMass,                               !- Name
  Rough,                                  !- Roughness
  0.1016,                                 !- Thickness {m}
  1.312675,                               !- Conductivity {W/m-K}
  2242.79999999999,                       !- Density {kg/m3}
  837.4;                                  !- Specific Heat {J/kg-K}

OS:Material,
  {204a0893-57ef-473d-af7f-5076d3e2daff}, !- Handle
  SlabCarpetBareEquivalentMaterial,       !- Name
  Rough,                                  !- Roughness
  0.0254,                                 !- Thickness {m}
  0.0866804263311929,                     !- Conductivity {W/m-K}
  40.05,                                  !- Density {kg/m3}
  1214.23;                                !- Specific Heat {J/kg-K}

OS:Material,
  {d3404183-2f2e-480b-8810-5d87b8abdad9}, !- Handle
  Mat-Fic-Slab,                           !- Name
  Rough,                                  !- Roughness
  0.0254,                                 !- Thickness {m}
  0.006989016477349,                      !- Conductivity {W/m-K}
  40.05,                                  !- Density {kg/m3}
  1214.23;                                !- Specific Heat {J/kg-K}

