
OS:Version,
  {97667769-4c9c-41ec-8c5b-9c0cad261aaf}, !- Handle
  1.3.1;                                  !- Version Identifier

OS:Construction,
  {72f7102e-09f2-49cd-b0ae-1ca8f5bfbc4b}, !- Handle
  ExtInsFinWall,                          !- Name
  ,                                       !- Surface Rendering Name
  {7a40a377-f32d-4bc4-a733-ad880f0b31f7}, !- Layer 1
  {7fc7455c-c6bf-469a-b5da-69191526d1bb}, !- Layer 2
  {548ce9bb-a926-46e1-822c-f7b00e682696}, !- Layer 3
  {ddd4cd2f-738c-4ee9-831c-93084d17508a}; !- Layer 4

OS:Material,
  {7a40a377-f32d-4bc4-a733-ad880f0b31f7}, !- Handle
  Exterior_Finish_Vinyl_Light,            !- Name
  Rough,                                  !- Roughness
  0.009525,                               !- Thickness {m}
  0.089435,                               !- Conductivity {W/m-K}
  177.822,                                !- Density {kg/m3}
  1046.75,                                !- Specific Heat {J/kg-K}
  0.9,                                    !- Thermal Absorptance
  0.3,                                    !- Solar Absorptance
  0.3;                                    !- Visible Absorptance

OS:Material,
  {ddd4cd2f-738c-4ee9-831c-93084d17508a}, !- Handle
  GypsumBoard_1_2in,                      !- Name
  Rough,                                  !- Roughness
  0.0127,                                 !- Thickness {m}
  0.1602906,                              !- Conductivity {W/m-K}
  801,                                    !- Density {kg/m3}
  837.4;                                  !- Specific Heat {J/kg-K}

OS:Material,
  {7fc7455c-c6bf-469a-b5da-69191526d1bb}, !- Handle
  CMU,                                    !- Name
  Rough,                                  !- Roughness
  0.1524,                                 !- Thickness {m}
  0.217804198580064,                      !- Conductivity {W/m-K}
  1800.45576,                             !- Density {kg/m3}
  845.554345303769;                       !- Specific Heat {J/kg-K}

OS:Material,
  {548ce9bb-a926-46e1-822c-f7b00e682696}, !- Handle
  Furring,                                !- Name
  Rough,                                  !- Roughness
  0.0508,                                 !- Thickness {m}
  0.0351095645269231,                     !- Conductivity {W/m-K}
  110.3341455,                            !- Density {kg/m3}
  1154.52431712832;                       !- Specific Heat {J/kg-K}

