
OS:Version,
  {8b4ae312-eb57-4b76-8aff-e5a77a958e1f}, !- Handle
  1.3.1;                                  !- Version Identifier

OS:Construction,
  {7aa988f4-62aa-4285-a269-4bf80eef413d}, !- Handle
  ExtInsFinWall,                          !- Name
  ,                                       !- Surface Rendering Name
  {ed57a188-8585-4773-ba8f-091b0fa8285c}, !- Layer 1
  {fe600cc7-7014-4dcf-82f8-96e8f06bc09f}, !- Layer 2
  {69bd95f3-fa88-4a69-89b5-d6e8b2d55593}, !- Layer 3
  {96c0d52a-286f-4f57-ab6f-24846f000058}; !- Layer 4

OS:Material,
  {ed57a188-8585-4773-ba8f-091b0fa8285c}, !- Handle
  Exterior_Finish_Vinyl_Light,            !- Name
  Rough,                                  !- Roughness
  0.009525,                               !- Thickness {m}
  0.089435,                               !- Conductivity {W/m-K}
  177.822,                                !- Density {kg/m3}
  1046.75,                                !- Specific Heat {J/kg-K}
  0.9,                                    !- Thermal Absorptance
  0.3,                                    !- Solar Absorptance
  0.3;                                    !- Visible Absorptance

OS:Material,
  {96c0d52a-286f-4f57-ab6f-24846f000058}, !- Handle
  GypsumBoard_1_2in,                      !- Name
  Rough,                                  !- Roughness
  0.0127,                                 !- Thickness {m}
  0.1602906,                              !- Conductivity {W/m-K}
  801,                                    !- Density {kg/m3}
  837.4;                                  !- Specific Heat {J/kg-K}

OS:Material,
  {fe600cc7-7014-4dcf-82f8-96e8f06bc09f}, !- Handle
  CMU,                                    !- Name
  Rough,                                  !- Roughness
  0.2032,                                 !- Thickness {m}
  0.512375883917753,                      !- Conductivity {W/m-K}
  705.07224,                              !- Density {kg/m3}
  858.222742888303;                       !- Specific Heat {J/kg-K}

OS:Material,
  {69bd95f3-fa88-4a69-89b5-d6e8b2d55593}, !- Handle
  Furring,                                !- Name
  Rough,                                  !- Roughness
  0.0254,                                 !- Thickness {m}
  0.14026226645,                          !- Conductivity {W/m-K}
  110.3341455,                            !- Density {kg/m3}
  1154.52431712832;                       !- Specific Heat {J/kg-K}

